
     RDKit          3D

  9  8  0  0  0  0  0  0  0  0999 V2000
    1.1303   -0.2933   -0.7510 C   0  0  0  0  0  0  0  0  0  0  0  0
    0.2866    0.4560   -0.0588 C   0  0  0  0  0  0  0  0  0  0  0  0
   -0.9719   -0.0331    0.5823 C   0  0  0  0  0  0  0  0  0  0  0  0
    2.0274    0.1230   -1.1916 H   0  0  0  0  0  0  0  0  0  0  0  0
    0.9532   -1.3530   -0.9023 H   0  0  0  0  0  0  0  0  0  0  0  0
    0.5065    1.5132    0.0659 H   0  0  0  0  0  0  0  0  0  0  0  0
   -0.9526    0.1426    1.6610 H   0  0  0  0  0  0  0  0  0  0  0  0
   -1.1182   -1.1002    0.4106 H   0  0  0  0  0  0  0  0  0  0  0  0
   -1.8412    0.5010    0.1901 H   0  0  0  0  0  0  0  0  0  0  0  0
  1  2  2  3
  1  4  1  0
  1  5  1  0
  2  3  1  0
  2  6  1  0
  3  7  1  0
  3  8  1  0
  3  9  1  0
M  END
>  <reaction>  (1) 
rxn_741

>  <mol_properties>  (1) 
{"2": {"label": "donator", "atom_type": "Cs"}, "6": {"label": "d_hydrogen", "atom_type": "H0"}}

>  <type>  (1) 
r1h

$$$$

     RDKit          3D

 18 19  0  0  0  0  0  0  0  0999 V2000
   -0.2352   -0.0323    1.4420 C   0  0  0  0  0  3  0  0  0  0  0  0
   -0.1734   -1.1359    0.4256 C   0  0  0  0  0  0  0  0  0  0  0  0
   -1.2562   -0.6812   -0.5734 C   0  0  0  0  0  0  0  0  0  0  0  0
   -1.1576    0.8706   -0.5226 C   0  0  0  0  0  0  0  0  0  0  0  0
   -0.0301    1.1185    0.4994 C   0  0  0  0  0  0  0  0  0  0  0  0
    1.3075    0.7028   -0.1632 C   0  0  0  0  0  0  0  0  0  0  0  0
    1.2087   -0.8504   -0.2141 C   0  0  0  0  0  0  0  0  0  0  0  0
    0.1290   -0.0888    2.4599 H   0  0  0  0  0  0  0  0  0  0  0  0
   -0.2924   -2.1557    0.7848 H   0  0  0  0  0  0  0  0  0  0  0  0
   -2.2417   -1.0206   -0.2534 H   0  0  0  0  0  0  0  0  0  0  0  0
   -1.0769   -1.0814   -1.5727 H   0  0  0  0  0  0  0  0  0  0  0  0
   -0.9249    1.3092   -1.4944 H   0  0  0  0  0  0  0  0  0  0  0  0
   -2.0935    1.3103   -0.1770 H   0  0  0  0  0  0  0  0  0  0  0  0
   -0.0206    2.1196    0.9249 H   0  0  0  0  0  0  0  0  0  0  0  0
    1.4248    1.1518   -1.1514 H   0  0  0  0  0  0  0  0  0  0  0  0
    2.1542    1.0215    0.4460 H   0  0  0  0  0  0  0  0  0  0  0  0
    1.2724   -1.2452   -1.2300 H   0  0  0  0  0  0  0  0  0  0  0  0
    2.0058   -1.3127    0.3695 H   0  0  0  0  0  0  0  0  0  0  0  0
  1  2  1  0
  1  5  1  0
  1  8  1  0
  2  3  1  0
  2  7  1  0
  2  9  1  0
  3  4  1  0
  3 10  1  0
  3 11  1  0
  4  5  1  0
  4 12  1  0
  4 13  1  0
  5  6  1  0
  5 14  1  0
  6  7  1  0
  6 15  1  0
  6 16  1  0
  7 17  1  0
  7 18  1  0
M  RAD  1   1   2
M  END
>  <reaction>  (2) 
rxn_741

>  <mol_properties>  (2) 
{"0": {"label": "acceptor", "atom_type": "Cs"}}

>  <type>  (2) 
r2

$$$$

     RDKit          3D

 19 20  0  0  0  0  0  0  0  0999 V2000
    1.1087   -0.4716   -0.9619 C   0  0  0  0  0  0  0  0  0  0  0  0
    0.9355    1.0407   -0.6470 C   0  0  0  0  0  0  0  0  0  0  0  0
   -0.0085    1.0377    0.5657 C   0  0  0  0  0  0  0  0  0  0  0  0
   -1.4093    0.6181    0.0927 C   0  0  0  0  0  0  0  0  0  0  0  0
   -1.2361   -0.8942   -0.2222 C   0  0  0  0  0  0  0  0  0  0  0  0
    0.2422   -1.1516    0.1099 C   0  0  0  0  0  0  0  0  0  0  0  0
    0.4537   -0.2211    1.3118 C   0  0  0  0  0  0  0  0  0  0  0  0
    2.1524   -0.7752   -0.8653 H   0  0  0  0  0  0  0  0  0  0  0  0
    0.7855   -0.7316   -1.9710 H   0  0  0  0  0  0  0  0  0  0  0  0
    1.8918    1.5001   -0.3916 H   0  0  0  0  0  0  0  0  0  0  0  0
    0.5184    1.6005   -1.4855 H   0  0  0  0  0  0  0  0  0  0  0  0
    0.0038    1.9661    1.1351 H   0  0  0  0  0  0  0  0  0  0  0  0
   -1.7351    1.1944   -0.7746 H   0  0  0  0  0  0  0  0  0  0  0  0
   -2.1465    0.7723    0.8824 H   0  0  0  0  0  0  0  0  0  0  0  0
   -1.4680   -1.1377   -1.2601 H   0  0  0  0  0  0  0  0  0  0  0  0
   -1.8859   -1.5030    0.4087 H   0  0  0  0  0  0  0  0  0  0  0  0
    0.4812   -2.2025    0.2673 H   0  0  0  0  0  0  0  0  0  0  0  0
    1.4942   -0.1701    1.6391 H   0  0  0  0  0  0  0  0  0  0  0  0
   -0.1779   -0.4714    2.1666 H   0  0  0  0  0  0  0  0  0  0  0  0
  1  2  1  0
  1  6  1  0
  1  8  1  0
  1  9  1  0
  2  3  1  0
  2 10  1  0
  2 11  1  0
  3  4  1  0
  3  7  1  0
  3 12  1  0
  4  5  1  0
  4 13  1  0
  4 14  1  0
  5  6  1  0
  5 15  1  0
  5 16  1  0
  6  7  1  0
  6 17  1  0
  7 18  1  0
  7 19  1  0
M  END
>  <reaction>  (3) 
rxn_741

>  <mol_properties>  (3) 
{"0": {"label": "a_hydrogen", "atom_type": "H0"}, "1": {"label": "acceptor", "atom_type": "Cs"}}

>  <type>  (3) 
r2h

$$$$

     RDKit          3D

 27 27  0  0  0  0  0  0  0  0999 V2000
    2.1249   -0.5161   -2.7401 C   0  0  0  0  0  0  0  0  0  0  0  0
    2.3998   -0.8013   -1.4674 C   0  0  0  0  0  0  0  0  0  0  0  0
    2.4842    0.1766   -0.3829 C   0  0  0  0  0  0  0  0  0  0  0  0
    2.0420   -1.2925   -3.4895 H   0  0  0  0  0  0  0  0  0  0  0  0
    1.9828    0.5073   -3.0708 H   0  0  0  0  0  0  0  0  0  0  0  0
    2.5371   -1.8432   -1.1893 H   0  0  0  0  0  0  0  0  0  0  0  0
    1.4036    0.1645    0.3083 H   0  0  0  0  0  0  0  0  0  0  0  0
    2.5495    1.2117   -0.7159 H   0  0  0  0  0  0  0  0  0  0  0  0
    3.2323   -0.0495    0.3750 H   0  0  0  0  0  0  0  0  0  0  0  0
    0.2468    0.3072    1.1378 C   0  0  0  0  0  3  0  0  0  0  0  0
   -0.6647   -0.9023    1.0374 C   0  0  1  0  0  0  0  0  0  0  0  0
   -1.8965   -0.3848    1.8103 C   0  0  0  0  0  0  0  0  0  0  0  0
   -1.9430    1.1237    1.4289 C   0  0  0  0  0  0  0  0  0  0  0  0
   -0.7194    1.2893    0.5022 C   0  0  2  0  0  0  0  0  0  0  0  0
   -1.0280    0.5940   -0.8342 C   0  0  0  0  0  0  0  0  0  0  0  0
   -1.0115   -0.9133   -0.4616 C   0  0  0  0  0  0  0  0  0  0  0  0
    0.6692    0.5547    2.1110 H   0  0  0  0  0  0  0  0  0  0  0  0
   -0.2718   -1.8453    1.4135 H   0  0  0  0  0  0  0  0  0  0  0  0
   -1.7610   -0.5129    2.8852 H   0  0  0  0  0  0  0  0  0  0  0  0
   -2.8045   -0.9204    1.5270 H   0  0  0  0  0  0  0  0  0  0  0  0
   -2.8704    1.4027    0.9253 H   0  0  0  0  0  0  0  0  0  0  0  0
   -1.8473    1.7548    2.3135 H   0  0  0  0  0  0  0  0  0  0  0  0
   -0.3763    2.3178    0.4031 H   0  0  0  0  0  0  0  0  0  0  0  0
   -1.9837    0.9180   -1.2487 H   0  0  0  0  0  0  0  0  0  0  0  0
   -0.2546    0.8131   -1.5721 H   0  0  0  0  0  0  0  0  0  0  0  0
   -1.9681   -1.4038   -0.6479 H   0  0  0  0  0  0  0  0  0  0  0  0
   -0.2505   -1.4418   -1.0356 H   0  0  0  0  0  0  0  0  0  0  0  0
  1  2  2  3
  1  4  1  0
  1  5  1  0
  2  3  1  0
  2  6  1  0
  3  7  1  0
  3  8  1  0
  3  9  1  0
 10 11  1  0
 10 14  1  0
 10 17  1  0
 11 12  1  0
 11 16  1  0
 11 18  1  1
 12 13  1  0
 12 19  1  0
 12 20  1  0
 13 14  1  0
 13 21  1  0
 13 22  1  0
 14 15  1  0
 14 23  1  6
 15 16  1  0
 15 24  1  0
 15 25  1  0
 16 26  1  0
 16 27  1  0
M  RAD  1  10   2
M  END
>  <reaction>  (4) 
rxn_741

>  <mol_properties>  (4) 
{"1": {"label": "*0", "atom_type": "Cd"}, "2": {"label": "*1", "atom_type": "Cs"}, "6": {"label": "*2", "atom_type": "H0"}, "9": {"label": "*3", "atom_type": "Cs"}, "10": {"label": "*4", "atom_type": "Cs"}}

>  <type>  (4) 
ts

$$$$

     RDKit          3D

 27 27  0  0  0  0  0  0  0  0999 V2000
    1.9553   -0.7687   -3.7611 C   0  0  0  0  0  0  0  0  0  0  0  0
    1.9553   -0.7687   -2.4373 C   0  0  0  0  0  0  0  0  0  0  0  0
    1.9553    0.4535   -1.5768 C   0  0  0  0  0  3  0  0  0  0  0  0
    1.9553   -1.6914   -4.3276 H   0  0  0  0  0  0  0  0  0  0  0  0
    1.9553    0.1569   -4.3271 H   0  0  0  0  0  0  0  0  0  0  0  0
    1.9553   -1.7213   -1.9138 H   0  0  0  0  0  0  0  0  0  0  0  0
    0.9021    0.4740   -0.7954 H   0  0  0  0  0  0  0  0  0  0  0  0
    1.9553    1.3639   -2.1774 H   0  0  0  0  0  0  0  0  0  0  0  0
    2.8330    0.4706   -0.9256 H   0  0  0  0  0  0  0  0  0  0  0  0
   -0.1501    0.4945   -0.0147 C   0  0  0  0  0  0  0  0  0  0  0  0
    0.2042    0.5126    1.4783 C   0  0  0  0  0  0  0  0  0  0  0  0
   -0.9288    1.3774    2.0530 C   0  0  0  0  0  0  0  0  0  0  0  0
   -2.1508    0.9843    1.1764 C   0  0  0  0  0  0  0  0  0  0  0  0
   -1.5648   -0.0564    0.2092 C   0  0  0  0  0  0  0  0  0  0  0  0
   -1.2726   -1.3438    0.9961 C   0  0  0  0  0  0  0  0  0  0  0  0
   -0.0507   -0.9507    1.8728 C   0  0  0  0  0  0  0  0  0  0  0  0
   -0.1415    1.4863   -0.4714 H   0  0  0  0  0  0  0  0  0  0  0  0
    1.2017    0.8692    1.7317 H   0  0  0  0  0  0  0  0  0  0  0  0
   -0.6965    2.4385    1.9486 H   0  0  0  0  0  0  0  0  0  0  0  0
   -1.0912    1.1819    3.1141 H   0  0  0  0  0  0  0  0  0  0  0  0
   -2.9756    0.5758    1.7622 H   0  0  0  0  0  0  0  0  0  0  0  0
   -2.5350    1.8471    0.6297 H   0  0  0  0  0  0  0  0  0  0  0  0
   -2.1666   -0.2142   -0.6847 H   0  0  0  0  0  0  0  0  0  0  0  0
   -2.1316   -1.6617    1.5890 H   0  0  0  0  0  0  0  0  0  0  0  0
   -1.0225   -2.1625    0.3193 H   0  0  0  0  0  0  0  0  0  0  0  0
   -0.2472   -1.0555    2.9408 H   0  0  0  0  0  0  0  0  0  0  0  0
    0.8160   -1.5711    1.6382 H   0  0  0  0  0  0  0  0  0  0  0  0
  1  2  2  3
  1  4  1  0
  1  5  1  0
  2  3  1  0
  2  6  1  0
  3  8  1  0
  3  9  1  0
  7 10  1  0
 10 11  1  0
 10 14  1  0
 10 17  1  0
 11 12  1  0
 11 16  1  0
 11 18  1  0
 12 13  1  0
 12 19  1  0
 12 20  1  0
 13 14  1  0
 13 21  1  0
 13 22  1  0
 14 15  1  0
 14 23  1  0
 15 16  1  0
 15 24  1  0
 15 25  1  0
 16 26  1  0
 16 27  1  0
M  RAD  1   3   2
M  END
>  <reaction>  (5) 
rxn_741

>  <mol_properties>  (5) 
{"1": {"label": "*0", "atom_type": "Cd"}, "2": {"label": "*1", "atom_type": "Cs"}, "6": {"label": "*2", "atom_type": "H0"}, "9": {"label": "*3", "atom_type": "Cs"}, "10": {"label": "*4", "atom_type": "Cs"}}

>  <type>  (5) 
unop_1

>  <geom_source>  (5) 
Heuristics

$$$$

     RDKit          3D

 27 27  0  0  0  0  0  0  0  0999 V2000
    2.3440   -0.6147   -3.0084 C   0  0  0  0  0  0  0  0  0  0  0  0
    2.3440   -0.6147   -1.6847 C   0  0  0  0  0  0  0  0  0  0  0  0
    2.3440    0.6075   -0.8242 C   0  0  0  0  0  3  0  0  0  0  0  0
    2.3440   -1.5374   -3.5749 H   0  0  0  0  0  0  0  0  0  0  0  0
    2.3440    0.3109   -3.5744 H   0  0  0  0  0  0  0  0  0  0  0  0
    2.3440   -1.5673   -1.1612 H   0  0  0  0  0  0  0  0  0  0  0  0
    1.2907    0.6280   -0.0427 H   0  0  0  0  0  0  0  0  0  0  0  0
    2.3440    1.5179   -1.4248 H   0  0  0  0  0  0  0  0  0  0  0  0
    3.2217    0.6246   -0.1729 H   0  0  0  0  0  0  0  0  0  0  0  0
    0.2385    0.6485    0.7380 C   0  0  0  0  0  0  0  0  0  0  0  0
   -0.2601   -0.7520    1.1186 C   0  0  0  0  0  0  0  0  0  0  0  0
   -1.2662   -0.4277    2.2342 C   0  0  0  0  0  0  0  0  0  0  0  0
   -1.8910    0.9160    1.7649 C   0  0  0  0  0  0  0  0  0  0  0  0
   -1.1647    1.1932    0.4392 C   0  0  0  0  0  0  0  0  0  0  0  0
   -1.6669    0.1903   -0.6114 C   0  0  0  0  0  0  0  0  0  0  0  0
   -1.0420   -1.1534   -0.1421 C   0  0  0  0  0  0  0  0  0  0  0  0
    0.7357    1.1669    1.5604 H   0  0  0  0  0  0  0  0  0  0  0  0
    0.5036   -1.4717    1.4104 H   0  0  0  0  0  0  0  0  0  0  0  0
   -0.7568   -0.3099    3.1921 H   0  0  0  0  0  0  0  0  0  0  0  0
   -2.0084   -1.2182    2.3546 H   0  0  0  0  0  0  0  0  0  0  0  0
   -2.9720    0.8539    1.6310 H   0  0  0  0  0  0  0  0  0  0  0  0
   -1.6969    1.7117    2.4861 H   0  0  0  0  0  0  0  0  0  0  0  0
   -1.2188    2.2322    0.1169 H   0  0  0  0  0  0  0  0  0  0  0  0
   -2.7566    0.1564   -0.6529 H   0  0  0  0  0  0  0  0  0  0  0  0
   -1.3109    0.4619   -1.6066 H   0  0  0  0  0  0  0  0  0  0  0  0
   -1.7930   -1.9157    0.0708 H   0  0  0  0  0  0  0  0  0  0  0  0
   -0.3708   -1.5598   -0.9005 H   0  0  0  0  0  0  0  0  0  0  0  0
  1  2  2  3
  1  4  1  0
  1  5  1  0
  2  3  1  0
  2  6  1  0
  3  8  1  0
  3  9  1  0
  7 10  1  0
 10 11  1  0
 10 14  1  0
 10 17  1  0
 11 12  1  0
 11 16  1  0
 11 18  1  0
 12 13  1  0
 12 19  1  0
 12 20  1  0
 13 14  1  0
 13 21  1  0
 13 22  1  0
 14 15  1  0
 14 23  1  0
 15 16  1  0
 15 24  1  0
 15 25  1  0
 16 26  1  0
 16 27  1  0
M  RAD  1   3   2
M  END
>  <reaction>  (6) 
rxn_741

>  <mol_properties>  (6) 
{"1": {"label": "*0", "atom_type": "Cd"}, "2": {"label": "*1", "atom_type": "Cs"}, "6": {"label": "*2", "atom_type": "H0"}, "9": {"label": "*3", "atom_type": "Cs"}, "10": {"label": "*4", "atom_type": "Cs"}}

>  <type>  (6) 
unop_2

>  <geom_source>  (6) 
Heuristics

$$$$

     RDKit          3D

 27 27  0  0  0  0  0  0  0  0999 V2000
    1.8152   -0.8852   -3.8567 C   0  0  0  0  0  0  0  0  0  0  0  0
    1.8152   -0.8852   -2.5329 C   0  0  0  0  0  0  0  0  0  0  0  0
    1.8152    0.3370   -1.6724 C   0  0  0  0  0  3  0  0  0  0  0  0
    1.8152   -1.8079   -4.4232 H   0  0  0  0  0  0  0  0  0  0  0  0
    1.8152    0.0404   -4.4227 H   0  0  0  0  0  0  0  0  0  0  0  0
    1.8152   -1.8378   -2.0094 H   0  0  0  0  0  0  0  0  0  0  0  0
    0.7619    0.3576   -0.8909 H   0  0  0  0  0  0  0  0  0  0  0  0
    1.8152    1.2475   -2.2730 H   0  0  0  0  0  0  0  0  0  0  0  0
    2.6929    0.3541   -1.0212 H   0  0  0  0  0  0  0  0  0  0  0  0
   -0.2903    0.3781   -0.1103 C   0  0  0  0  0  0  0  0  0  0  0  0
   -0.0422    1.1000    1.2210 C   0  0  0  0  0  0  0  0  0  0  0  0
   -1.4689    1.5098    1.6193 C   0  0  0  0  0  0  0  0  0  0  0  0
   -2.3314    0.3208    1.1111 C   0  0  0  0  0  0  0  0  0  0  0  0
   -1.2909   -0.6214    0.4853 C   0  0  0  0  0  0  0  0  0  0  0  0
   -0.4611   -1.2514    1.6151 C   0  0  0  0  0  0  0  0  0  0  0  0
    0.4015   -0.0623    2.1233 C   0  0  0  0  0  0  0  0  0  0  0  0
   -0.7288    1.0229   -0.8747 H   0  0  0  0  0  0  0  0  0  0  0  0
    0.6626    1.9299    1.1941 H   0  0  0  0  0  0  0  0  0  0  0  0
   -1.7555    2.4407    1.1271 H   0  0  0  0  0  0  0  0  0  0  0  0
   -1.5611    1.6679    2.6949 H   0  0  0  0  0  0  0  0  0  0  0  0
   -2.8913   -0.1658    1.9112 H   0  0  0  0  0  0  0  0  0  0  0  0
   -3.0532    0.6517    0.3625 H   0  0  0  0  0  0  0  0  0  0  0  0
   -1.7150   -1.3478   -0.2067 H   0  0  0  0  0  0  0  0  0  0  0  0
   -1.0938   -1.6768    2.3956 H   0  0  0  0  0  0  0  0  0  0  0  0
    0.1680   -2.0559    1.2306 H   0  0  0  0  0  0  0  0  0  0  0  0
    0.2364    0.1569    3.1793 H   0  0  0  0  0  0  0  0  0  0  0  0
    1.4657   -0.2669    1.9952 H   0  0  0  0  0  0  0  0  0  0  0  0
  1  2  2  3
  1  4  1  0
  1  5  1  0
  2  3  1  0
  2  6  1  0
  3  8  1  0
  3  9  1  0
  7 10  1  0
 10 11  1  0
 10 14  1  0
 10 17  1  0
 11 12  1  0
 11 16  1  0
 11 18  1  0
 12 13  1  0
 12 19  1  0
 12 20  1  0
 13 14  1  0
 13 21  1  0
 13 22  1  0
 14 15  1  0
 14 23  1  0
 15 16  1  0
 15 24  1  0
 15 25  1  0
 16 26  1  0
 16 27  1  0
M  RAD  1   3   2
M  END
>  <reaction>  (7) 
rxn_741

>  <mol_properties>  (7) 
{"1": {"label": "*0", "atom_type": "Cd"}, "2": {"label": "*1", "atom_type": "Cs"}, "6": {"label": "*2", "atom_type": "H0"}, "9": {"label": "*3", "atom_type": "Cs"}, "10": {"label": "*4", "atom_type": "Cs"}}

>  <type>  (7) 
unop_3

>  <geom_source>  (7) 
Heuristics

$$$$

     RDKit          3D

 27 27  0  0  0  0  0  0  0  0999 V2000
    2.0013   -1.7178   -2.5842 C   0  0  0  0  0  0  0  0  0  0  0  0
    2.0013   -1.7178   -1.2605 C   0  0  0  0  0  0  0  0  0  0  0  0
    2.0013   -0.4956   -0.3999 C   0  0  0  0  0  3  0  0  0  0  0  0
    2.0013   -2.6405   -3.1507 H   0  0  0  0  0  0  0  0  0  0  0  0
    2.0013   -0.7922   -3.1502 H   0  0  0  0  0  0  0  0  0  0  0  0
    2.0013   -2.6704   -0.7369 H   0  0  0  0  0  0  0  0  0  0  0  0
    0.9481   -0.4751    0.3815 H   0  0  0  0  0  0  0  0  0  0  0  0
    2.0013    0.4149   -1.0005 H   0  0  0  0  0  0  0  0  0  0  0  0
    2.8790   -0.4785    0.2513 H   0  0  0  0  0  0  0  0  0  0  0  0
   -0.1041   -0.4545    1.1622 C   0  0  0  0  0  0  0  0  0  0  0  0
   -1.4305   -0.4536    0.3904 C   0  0  0  0  0  0  0  0  0  0  0  0
   -2.2830    0.4978    1.2447 C   0  0  0  0  0  0  0  0  0  0  0  0
   -1.2501    1.5499    1.7368 C   0  0  0  0  0  0  0  0  0  0  0  0
    0.0649    1.0696    1.1027 C   0  0  0  0  0  0  0  0  0  0  0  0
   -0.0005    1.3275   -0.4109 C   0  0  0  0  0  0  0  0  0  0  0  0
   -1.0334    0.2754   -0.9030 C   0  0  0  0  0  0  0  0  0  0  0  0
   -0.1985   -0.8380    2.1802 H   0  0  0  0  0  0  0  0  0  0  0  0
   -1.8905   -1.4267    0.2234 H   0  0  0  0  0  0  0  0  0  0  0  0
   -2.7316   -0.0343    2.0853 H   0  0  0  0  0  0  0  0  0  0  0  0
   -3.0961    0.9427    0.6692 H   0  0  0  0  0  0  0  0  0  0  0  0
   -1.5032    2.5653    1.4280 H   0  0  0  0  0  0  0  0  0  0  0  0
   -1.1775    1.5487    2.8256 H   0  0  0  0  0  0  0  0  0  0  0  0
    0.9567    1.4736    1.5798 H   0  0  0  0  0  0  0  0  0  0  0  0
   -0.3022    2.3516   -0.6361 H   0  0  0  0  0  0  0  0  0  0  0  0
    0.9747    1.1657   -0.8733 H   0  0  0  0  0  0  0  0  0  0  0  0
   -1.8951    0.7290   -1.3950 H   0  0  0  0  0  0  0  0  0  0  0  0
   -0.5794   -0.4173   -1.6136 H   0  0  0  0  0  0  0  0  0  0  0  0
  1  2  2  3
  1  4  1  0
  1  5  1  0
  2  3  1  0
  2  6  1  0
  3  8  1  0
  3  9  1  0
  7 10  1  0
 10 11  1  0
 10 14  1  0
 10 17  1  0
 11 12  1  0
 11 16  1  0
 11 18  1  0
 12 13  1  0
 12 19  1  0
 12 20  1  0
 13 14  1  0
 13 21  1  0
 13 22  1  0
 14 15  1  0
 14 23  1  0
 15 16  1  0
 15 24  1  0
 15 25  1  0
 16 26  1  0
 16 27  1  0
M  RAD  1   3   2
M  END
>  <reaction>  (8) 
rxn_741

>  <mol_properties>  (8) 
{"1": {"label": "*0", "atom_type": "Cd"}, "2": {"label": "*1", "atom_type": "Cs"}, "6": {"label": "*2", "atom_type": "H0"}, "9": {"label": "*3", "atom_type": "Cs"}, "10": {"label": "*4", "atom_type": "Cs"}}

>  <type>  (8) 
unop_4

>  <geom_source>  (8) 
Heuristics

$$$$

     RDKit          3D

 27 27  0  0  0  0  0  0  0  0999 V2000
    1.4513   -1.1201   -3.9260 C   0  0  0  0  0  0  0  0  0  0  0  0
    1.4513   -1.1201   -2.6023 C   0  0  0  0  0  0  0  0  0  0  0  0
    1.4513    0.1021   -1.7418 C   0  0  0  0  0  3  0  0  0  0  0  0
    1.4513   -2.0428   -4.4925 H   0  0  0  0  0  0  0  0  0  0  0  0
    1.4513   -0.1945   -4.4920 H   0  0  0  0  0  0  0  0  0  0  0  0
    1.4513   -2.0727   -2.0788 H   0  0  0  0  0  0  0  0  0  0  0  0
    0.3980    0.1227   -0.9603 H   0  0  0  0  0  0  0  0  0  0  0  0
    1.4513    1.0126   -2.3424 H   0  0  0  0  0  0  0  0  0  0  0  0
    2.3290    0.1192   -1.0905 H   0  0  0  0  0  0  0  0  0  0  0  0
   -0.6541    0.1432   -0.1796 C   0  0  0  0  0  0  0  0  0  0  0  0
   -0.7090    1.3780    0.7298 C   0  0  0  0  0  0  0  0  0  0  0  0
   -1.9172    1.0501    1.6213 C   0  0  0  0  0  0  0  0  0  0  0  0
   -1.8169   -0.4910    1.7970 C   0  0  0  0  0  0  0  0  0  0  0  0
   -0.5639   -0.8531    0.9841 C   0  0  0  0  0  0  0  0  0  0  0  0
    0.6723   -0.3360    1.7367 C   0  0  0  0  0  0  0  0  0  0  0  0
    0.5720    1.2052    1.5610 C   0  0  0  0  0  0  0  0  0  0  0  0
   -1.5524    0.0155   -0.7872 H   0  0  0  0  0  0  0  0  0  0  0  0
   -0.7812    2.3421    0.2281 H   0  0  0  0  0  0  0  0  0  0  0  0
   -2.8494    1.3286    1.1271 H   0  0  0  0  0  0  0  0  0  0  0  0
   -1.8789    1.5858    2.5710 H   0  0  0  0  0  0  0  0  0  0  0  0
   -1.7243   -0.7909    2.8419 H   0  0  0  0  0  0  0  0  0  0  0  0
   -2.6986   -0.9901    1.3914 H   0  0  0  0  0  0  0  0  0  0  0  0
   -0.5049   -1.9062    0.7123 H   0  0  0  0  0  0  0  0  0  0  0  0
    0.6680   -0.6418    2.7840 H   0  0  0  0  0  0  0  0  0  0  0  0
    1.5884   -0.7230    1.2876 H   0  0  0  0  0  0  0  0  0  0  0  0
    0.5134    1.7348    2.5131 H   0  0  0  0  0  0  0  0  0  0  0  0
    1.4376    1.5957    1.0233 H   0  0  0  0  0  0  0  0  0  0  0  0
  1  2  2  3
  1  4  1  0
  1  5  1  0
  2  3  1  0
  2  6  1  0
  3  8  1  0
  3  9  1  0
  7 10  1  0
 10 11  1  0
 10 14  1  0
 10 17  1  0
 11 12  1  0
 11 16  1  0
 11 18  1  0
 12 13  1  0
 12 19  1  0
 12 20  1  0
 13 14  1  0
 13 21  1  0
 13 22  1  0
 14 15  1  0
 14 23  1  0
 15 16  1  0
 15 24  1  0
 15 25  1  0
 16 26  1  0
 16 27  1  0
M  RAD  1   3   2
M  END
>  <reaction>  (9) 
rxn_741

>  <mol_properties>  (9) 
{"1": {"label": "*0", "atom_type": "Cd"}, "2": {"label": "*1", "atom_type": "Cs"}, "6": {"label": "*2", "atom_type": "H0"}, "9": {"label": "*3", "atom_type": "Cs"}, "10": {"label": "*4", "atom_type": "Cs"}}

>  <type>  (9) 
unop_5

>  <geom_source>  (9) 
Heuristics

$$$$

     RDKit          3D

 27 27  0  0  0  0  0  0  0  0999 V2000
    1.6900   -1.9432   -2.8466 C   0  0  0  0  0  0  0  0  0  0  0  0
    1.6900   -1.9432   -1.5228 C   0  0  0  0  0  0  0  0  0  0  0  0
    1.6900   -0.7210   -0.6623 C   0  0  0  0  0  3  0  0  0  0  0  0
    1.6900   -2.8659   -3.4131 H   0  0  0  0  0  0  0  0  0  0  0  0
    1.6900   -1.0176   -3.4126 H   0  0  0  0  0  0  0  0  0  0  0  0
    1.6900   -2.8958   -0.9993 H   0  0  0  0  0  0  0  0  0  0  0  0
    0.6368   -0.7004    0.1191 H   0  0  0  0  0  0  0  0  0  0  0  0
    1.6900    0.1895   -1.2629 H   0  0  0  0  0  0  0  0  0  0  0  0
    2.5677   -0.7039   -0.0111 H   0  0  0  0  0  0  0  0  0  0  0  0
   -0.4154   -0.6799    0.8998 C   0  0  0  0  0  0  0  0  0  0  0  0
   -1.6229    0.0271    0.2697 C   0  0  0  0  0  0  0  0  0  0  0  0
   -2.0914    0.9251    1.4256 C   0  0  0  0  0  0  0  0  0  0  0  0
   -0.7595    1.3381    2.1123 C   0  0  0  0  0  0  0  0  0  0  0  0
    0.3052    0.6251    1.2639 C   0  0  0  0  0  0  0  0  0  0  0  0
    0.3876    1.3228   -0.1030 C   0  0  0  0  0  0  0  0  0  0  0  0
   -0.9443    0.9097   -0.7897 C   0  0  0  0  0  0  0  0  0  0  0  0
   -0.6767   -1.2850    1.7704 H   0  0  0  0  0  0  0  0  0  0  0  0
   -2.4037   -0.6185   -0.1301 H   0  0  0  0  0  0  0  0  0  0  0  0
   -2.7309    0.3687    2.1129 H   0  0  0  0  0  0  0  0  0  0  0  0
   -2.6645    1.7819    1.0682 H   0  0  0  0  0  0  0  0  0  0  0  0
   -0.6106    2.4189    2.1273 H   0  0  0  0  0  0  0  0  0  0  0  0
   -0.7270    0.9902    3.1461 H   0  0  0  0  0  0  0  0  0  0  0  0
    1.2676    0.5200    1.7630 H   0  0  0  0  0  0  0  0  0  0  0  0
    0.4918    2.4041   -0.0018 H   0  0  0  0  0  0  0  0  0  0  0  0
    1.2486    0.9637   -0.6692 H   0  0  0  0  0  0  0  0  0  0  0  0
   -1.5621    1.7671   -1.0609 H   0  0  0  0  0  0  0  0  0  0  0  0
   -0.7553    0.3423   -1.7025 H   0  0  0  0  0  0  0  0  0  0  0  0
  1  2  2  3
  1  4  1  0
  1  5  1  0
  2  3  1  0
  2  6  1  0
  3  8  1  0
  3  9  1  0
  7 10  1  0
 10 11  1  0
 10 14  1  0
 10 17  1  0
 11 12  1  0
 11 16  1  0
 11 18  1  0
 12 13  1  0
 12 19  1  0
 12 20  1  0
 13 14  1  0
 13 21  1  0
 13 22  1  0
 14 15  1  0
 14 23  1  0
 15 16  1  0
 15 24  1  0
 15 25  1  0
 16 26  1  0
 16 27  1  0
M  RAD  1   3   2
M  END
>  <reaction>  (10) 
rxn_741

>  <mol_properties>  (10) 
{"1": {"label": "*0", "atom_type": "Cd"}, "2": {"label": "*1", "atom_type": "Cs"}, "6": {"label": "*2", "atom_type": "H0"}, "9": {"label": "*3", "atom_type": "Cs"}, "10": {"label": "*4", "atom_type": "Cs"}}

>  <type>  (10) 
unop_6

>  <geom_source>  (10) 
Heuristics

$$$$

     RDKit          3D

 27 27  0  0  0  0  0  0  0  0999 V2000
    1.3881   -1.9364   -3.2353 C   0  0  0  0  0  0  0  0  0  0  0  0
    1.3881   -1.9364   -1.9115 C   0  0  0  0  0  0  0  0  0  0  0  0
    1.3881   -0.7142   -1.0510 C   0  0  0  0  0  3  0  0  0  0  0  0
    1.3881   -2.8591   -3.8017 H   0  0  0  0  0  0  0  0  0  0  0  0
    1.3881   -1.0108   -3.8013 H   0  0  0  0  0  0  0  0  0  0  0  0
    1.3881   -2.8890   -1.3880 H   0  0  0  0  0  0  0  0  0  0  0  0
    0.3348   -0.6937   -0.2695 H   0  0  0  0  0  0  0  0  0  0  0  0
    1.3881    0.1963   -1.6516 H   0  0  0  0  0  0  0  0  0  0  0  0
    2.2658   -0.6971   -0.3998 H   0  0  0  0  0  0  0  0  0  0  0  0
   -0.7174   -0.6731    0.5111 C   0  0  0  0  0  0  0  0  0  0  0  0
   -1.6126    0.5531    0.2881 C   0  0  0  0  0  0  0  0  0  0  0  0
   -1.8549    1.0237    1.7310 C   0  0  0  0  0  0  0  0  0  0  0  0
   -0.5044    0.7113    2.4344 C   0  0  0  0  0  0  0  0  0  0  0  0
    0.3424    0.1009    1.3065 C   0  0  0  0  0  0  0  0  0  0  0  0
    0.7151    1.2168    0.3176 C   0  0  0  0  0  0  0  0  0  0  0  0
   -0.6354    1.5291   -0.3858 C   0  0  0  0  0  0  0  0  0  0  0  0
   -1.2021   -1.4603    1.0922 H   0  0  0  0  0  0  0  0  0  0  0  0
   -2.5271    0.3844   -0.2790 H   0  0  0  0  0  0  0  0  0  0  0  0
   -2.6734    0.4649    2.1878 H   0  0  0  0  0  0  0  0  0  0  0  0
   -2.1180    2.0816    1.7748 H   0  0  0  0  0  0  0  0  0  0  0  0
   -0.0354    1.5999    2.8596 H   0  0  0  0  0  0  0  0  0  0  0  0
   -0.6416   -0.0051    3.2461 H   0  0  0  0  0  0  0  0  0  0  0  0
    1.1955   -0.4766    1.6601 H   0  0  0  0  0  0  0  0  0  0  0  0
    1.1367    2.0857    0.8252 H   0  0  0  0  0  0  0  0  0  0  0  0
    1.4588    0.8654   -0.3996 H   0  0  0  0  0  0  0  0  0  0  0  0
   -0.9459    2.5674   -0.2596 H   0  0  0  0  0  0  0  0  0  0  0  0
   -0.5730    1.3354   -1.4580 H   0  0  0  0  0  0  0  0  0  0  0  0
  1  2  2  3
  1  4  1  0
  1  5  1  0
  2  3  1  0
  2  6  1  0
  3  8  1  0
  3  9  1  0
  7 10  1  0
 10 11  1  0
 10 14  1  0
 10 17  1  0
 11 12  1  0
 11 16  1  0
 11 18  1  0
 12 13  1  0
 12 19  1  0
 12 20  1  0
 13 14  1  0
 13 21  1  0
 13 22  1  0
 14 15  1  0
 14 23  1  0
 15 16  1  0
 15 24  1  0
 15 25  1  0
 16 26  1  0
 16 27  1  0
M  RAD  1   3   2
M  END
>  <reaction>  (11) 
rxn_741

>  <mol_properties>  (11) 
{"1": {"label": "*0", "atom_type": "Cd"}, "2": {"label": "*1", "atom_type": "Cs"}, "6": {"label": "*2", "atom_type": "H0"}, "9": {"label": "*3", "atom_type": "Cs"}, "10": {"label": "*4", "atom_type": "Cs"}}

>  <type>  (11) 
unop_7

>  <geom_source>  (11) 
Heuristics

$$$$

     RDKit          3D

 27 27  0  0  0  0  0  0  0  0999 V2000
    2.0598   -0.6192   -3.6173 C   0  0  0  0  0  0  0  0  0  0  0  0
    2.0598   -0.6192   -2.2935 C   0  0  0  0  0  0  0  0  0  0  0  0
    2.0598    0.6030   -1.4330 C   0  0  0  0  0  3  0  0  0  0  0  0
    2.0598   -1.5420   -4.1838 H   0  0  0  0  0  0  0  0  0  0  0  0
    2.0598    0.3064   -4.1833 H   0  0  0  0  0  0  0  0  0  0  0  0
    2.0598   -1.5719   -1.7700 H   0  0  0  0  0  0  0  0  0  0  0  0
    1.0065    0.6235   -0.6516 H   0  0  0  0  0  0  0  0  0  0  0  0
    2.0598    1.5134   -2.0336 H   0  0  0  0  0  0  0  0  0  0  0  0
    2.9375    0.6201   -0.7818 H   0  0  0  0  0  0  0  0  0  0  0  0
   -0.0457    0.6440    0.1291 C   0  0  0  0  0  0  0  0  0  0  0  0
    0.1898   -0.0441    1.4804 C   0  0  0  0  0  0  0  0  0  0  0  0
   -0.6947    0.7985    2.4130 C   0  0  0  0  0  0  0  0  0  0  0  0
   -1.9106    1.1589    1.5141 C   0  0  0  0  0  0  0  0  0  0  0  0
   -1.5704    0.4777    0.1792 C   0  0  0  0  0  0  0  0  0  0  0  0
   -1.7084   -1.0425    0.3580 C   0  0  0  0  0  0  0  0  0  0  0  0
   -0.4925   -1.4029    1.2568 C   0  0  0  0  0  0  0  0  0  0  0  0
    0.2734    1.6882    0.1161 H   0  0  0  0  0  0  0  0  0  0  0  0
    1.2259   -0.1205    1.8072 H   0  0  0  0  0  0  0  0  0  0  0  0
   -0.1677    1.6970    2.7385 H   0  0  0  0  0  0  0  0  0  0  0  0
   -0.9822    0.2465    3.3091 H   0  0  0  0  0  0  0  0  0  0  0  0
   -2.8572    0.8022    1.9229 H   0  0  0  0  0  0  0  0  0  0  0  0
   -1.9970    2.2392    1.3861 H   0  0  0  0  0  0  0  0  0  0  0  0
   -2.1255    0.8729   -0.6705 H   0  0  0  0  0  0  0  0  0  0  0  0
   -2.6629   -1.3135    0.8118 H   0  0  0  0  0  0  0  0  0  0  0  0
   -1.6488   -1.5522   -0.6051 H   0  0  0  0  0  0  0  0  0  0  0  0
   -0.7879   -1.8693    2.1979 H   0  0  0  0  0  0  0  0  0  0  0  0
    0.1805   -2.0944    0.7473 H   0  0  0  0  0  0  0  0  0  0  0  0
  1  2  2  3
  1  4  1  0
  1  5  1  0
  2  3  1  0
  2  6  1  0
  3  8  1  0
  3  9  1  0
  7 10  1  0
 10 11  1  0
 10 14  1  0
 10 17  1  0
 11 12  1  0
 11 16  1  0
 11 18  1  0
 12 13  1  0
 12 19  1  0
 12 20  1  0
 13 14  1  0
 13 21  1  0
 13 22  1  0
 14 15  1  0
 14 23  1  0
 15 16  1  0
 15 24  1  0
 15 25  1  0
 16 26  1  0
 16 27  1  0
M  RAD  1   3   2
M  END
>  <reaction>  (12) 
rxn_741

>  <mol_properties>  (12) 
{"1": {"label": "*0", "atom_type": "Cd"}, "2": {"label": "*1", "atom_type": "Cs"}, "6": {"label": "*2", "atom_type": "H0"}, "9": {"label": "*3", "atom_type": "Cs"}, "10": {"label": "*4", "atom_type": "Cs"}}

>  <type>  (12) 
unop_8

>  <geom_source>  (12) 
Heuristics

$$$$

     RDKit          3D

 27 27  0  0  0  0  0  0  0  0999 V2000
    2.2541   -1.3379   -2.5159 C   0  0  0  0  0  0  0  0  0  0  0  0
    2.2541   -1.3379   -1.1922 C   0  0  0  0  0  0  0  0  0  0  0  0
    2.2541   -0.1157   -0.3317 C   0  0  0  0  0  3  0  0  0  0  0  0
    2.2541   -2.2606   -3.0824 H   0  0  0  0  0  0  0  0  0  0  0  0
    2.2541   -0.4123   -3.0819 H   0  0  0  0  0  0  0  0  0  0  0  0
    2.2541   -2.2905   -0.6686 H   0  0  0  0  0  0  0  0  0  0  0  0
    1.2009   -0.0952    0.4498 H   0  0  0  0  0  0  0  0  0  0  0  0
    2.2541    0.7948   -0.9322 H   0  0  0  0  0  0  0  0  0  0  0  0
    3.1318   -0.0986    0.3196 H   0  0  0  0  0  0  0  0  0  0  0  0
    0.1487   -0.0746    1.2305 C   0  0  0  0  0  0  0  0  0  0  0  0
   -1.0714   -0.7776    0.6204 C   0  0  0  0  0  0  0  0  0  0  0  0
   -2.2269   -0.0884    1.3632 C   0  0  0  0  0  0  0  0  0  0  0  0
   -1.7175    1.3707    1.5300 C   0  0  0  0  0  0  0  0  0  0  0  0
   -0.3339    1.3347    0.8618 C   0  0  0  0  0  0  0  0  0  0  0  0
   -0.5288    1.2056   -0.6572 C   0  0  0  0  0  0  0  0  0  0  0  0
   -1.0382   -0.2534   -0.8239 C   0  0  0  0  0  0  0  0  0  0  0  0
    0.2415   -0.2301    2.3073 H   0  0  0  0  0  0  0  0  0  0  0  0
   -1.0871   -1.8642    0.6938 H   0  0  0  0  0  0  0  0  0  0  0  0
   -2.3973   -0.5576    2.3336 H   0  0  0  0  0  0  0  0  0  0  0  0
   -3.1619   -0.1469    0.8040 H   0  0  0  0  0  0  0  0  0  0  0  0
   -2.3764    2.1031    1.0612 H   0  0  0  0  0  0  0  0  0  0  0  0
   -1.6309    1.6376    2.5845 H   0  0  0  0  0  0  0  0  0  0  0  0
    0.3171    2.1577    1.1535 H   0  0  0  0  0  0  0  0  0  0  0  0
   -1.2340    1.9445   -1.0408 H   0  0  0  0  0  0  0  0  0  0  0  0
    0.4163    1.3534   -1.1823 H   0  0  0  0  0  0  0  0  0  0  0  0
   -2.0195   -0.3055   -1.2980 H   0  0  0  0  0  0  0  0  0  0  0  0
   -0.3501   -0.8418   -1.4332 H   0  0  0  0  0  0  0  0  0  0  0  0
  1  2  2  3
  1  4  1  0
  1  5  1  0
  2  3  1  0
  2  6  1  0
  3  8  1  0
  3  9  1  0
  7 10  1  0
 10 11  1  0
 10 14  1  0
 10 17  1  0
 11 12  1  0
 11 16  1  0
 11 18  1  0
 12 13  1  0
 12 19  1  0
 12 20  1  0
 13 14  1  0
 13 21  1  0
 13 22  1  0
 14 15  1  0
 14 23  1  0
 15 16  1  0
 15 24  1  0
 15 25  1  0
 16 26  1  0
 16 27  1  0
M  RAD  1   3   2
M  END
>  <reaction>  (13) 
rxn_741

>  <mol_properties>  (13) 
{"1": {"label": "*0", "atom_type": "Cd"}, "2": {"label": "*1", "atom_type": "Cs"}, "6": {"label": "*2", "atom_type": "H0"}, "9": {"label": "*3", "atom_type": "Cs"}, "10": {"label": "*4", "atom_type": "Cs"}}

>  <type>  (13) 
unop_9

>  <geom_source>  (13) 
Heuristics

$$$$

     RDKit          3D

 27 27  0  0  0  0  0  0  0  0999 V2000
    2.2029   -0.5291   -3.3593 C   0  0  0  0  0  0  0  0  0  0  0  0
    2.2029   -0.5291   -2.0356 C   0  0  0  0  0  0  0  0  0  0  0  0
    2.2029    0.6931   -1.1751 C   0  0  0  0  0  3  0  0  0  0  0  0
    2.2029   -1.4518   -3.9258 H   0  0  0  0  0  0  0  0  0  0  0  0
    2.2029    0.3965   -3.9253 H   0  0  0  0  0  0  0  0  0  0  0  0
    2.2029   -1.4817   -1.5121 H   0  0  0  0  0  0  0  0  0  0  0  0
    1.1497    0.7136   -0.3936 H   0  0  0  0  0  0  0  0  0  0  0  0
    2.2029    1.6035   -1.7757 H   0  0  0  0  0  0  0  0  0  0  0  0
    3.0806    0.7102   -0.5238 H   0  0  0  0  0  0  0  0  0  0  0  0
    0.0975    0.7341    0.3871 C   0  0  0  0  0  0  0  0  0  0  0  0
    0.0207   -0.4732    1.3312 C   0  0  0  0  0  0  0  0  0  0  0  0
   -0.8218    0.0920    2.4856 C   0  0  0  0  0  0  0  0  0  0  0  0
   -1.8205    1.0382    1.7619 C   0  0  0  0  0  0  0  0  0  0  0  0
   -1.4250    0.8965    0.2836 C   0  0  0  0  0  0  0  0  0  0  0  0
   -1.8507   -0.4974   -0.2040 C   0  0  0  0  0  0  0  0  0  0  0  0
   -0.8520   -1.4435    0.5196 C   0  0  0  0  0  0  0  0  0  0  0  0
    0.5935    1.5987    0.8329 H   0  0  0  0  0  0  0  0  0  0  0  0
    0.9726   -0.8974    1.6480 H   0  0  0  0  0  0  0  0  0  0  0  0
   -0.1952    0.6456    3.1869 H   0  0  0  0  0  0  0  0  0  0  0  0
   -1.3220   -0.6976    3.0484 H   0  0  0  0  0  0  0  0  0  0  0  0
   -2.8620    0.7615    1.9324 H   0  0  0  0  0  0  0  0  0  0  0  0
   -1.6977    2.0691    2.0981 H   0  0  0  0  0  0  0  0  0  0  0  0
   -1.7801    1.7106   -0.3468 H   0  0  0  0  0  0  0  0  0  0  0  0
   -2.8910   -0.7143    0.0430 H   0  0  0  0  0  0  0  0  0  0  0  0
   -1.7497   -0.5755   -1.2878 H   0  0  0  0  0  0  0  0  0  0  0  0
   -1.3510   -2.1734    1.1590 H   0  0  0  0  0  0  0  0  0  0  0  0
   -0.2472   -1.9990   -0.1990 H   0  0  0  0  0  0  0  0  0  0  0  0
  1  2  2  3
  1  4  1  0
  1  5  1  0
  2  3  1  0
  2  6  1  0
  3  8  1  0
  3  9  1  0
  7 10  1  0
 10 11  1  0
 10 14  1  0
 10 17  1  0
 11 12  1  0
 11 16  1  0
 11 18  1  0
 12 13  1  0
 12 19  1  0
 12 20  1  0
 13 14  1  0
 13 21  1  0
 13 22  1  0
 14 15  1  0
 14 23  1  0
 15 16  1  0
 15 24  1  0
 15 25  1  0
 16 26  1  0
 16 27  1  0
M  RAD  1   3   2
M  END
>  <reaction>  (14) 
rxn_741

>  <mol_properties>  (14) 
{"1": {"label": "*0", "atom_type": "Cd"}, "2": {"label": "*1", "atom_type": "Cs"}, "6": {"label": "*2", "atom_type": "H0"}, "9": {"label": "*3", "atom_type": "Cs"}, "10": {"label": "*4", "atom_type": "Cs"}}

>  <type>  (14) 
unop_10

>  <geom_source>  (14) 
Heuristics

$$$$

     RDKit          3D

 27 27  0  0  0  0  0  0  0  0999 V2000
    1.2231   -1.6326   -3.6662 C   0  0  0  0  0  0  0  0  0  0  0  0
    1.2231   -1.6326   -2.3425 C   0  0  0  0  0  0  0  0  0  0  0  0
    1.2231   -0.4104   -1.4820 C   0  0  0  0  0  3  0  0  0  0  0  0
    1.2231   -2.5553   -4.2327 H   0  0  0  0  0  0  0  0  0  0  0  0
    1.2231   -0.7070   -4.2322 H   0  0  0  0  0  0  0  0  0  0  0  0
    1.2231   -2.5852   -1.8190 H   0  0  0  0  0  0  0  0  0  0  0  0
    0.1698   -0.3898   -0.7005 H   0  0  0  0  0  0  0  0  0  0  0  0
    1.2231    0.5001   -2.0826 H   0  0  0  0  0  0  0  0  0  0  0  0
    2.1008   -0.3933   -0.8307 H   0  0  0  0  0  0  0  0  0  0  0  0
   -0.8824   -0.3693    0.0802 C   0  0  0  0  0  0  0  0  0  0  0  0
   -1.3558    1.0501    0.4207 C   0  0  0  0  0  0  0  0  0  0  0  0
   -1.8120    0.8809    1.8785 C   0  0  0  0  0  0  0  0  0  0  0  0
   -0.7964   -0.1490    2.4477 C   0  0  0  0  0  0  0  0  0  0  0  0
    0.1144   -0.4409    1.2448 C   0  0  0  0  0  0  0  0  0  0  0  0
    0.9856    0.7973    0.9806 C   0  0  0  0  0  0  0  0  0  0  0  0
   -0.0299    1.8272    0.4114 C   0  0  0  0  0  0  0  0  0  0  0  0
   -1.6766   -1.1157    0.1466 H   0  0  0  0  0  0  0  0  0  0  0  0
   -2.1180    1.4727   -0.2326 H   0  0  0  0  0  0  0  0  0  0  0  0
   -2.8308    0.4924    1.9223 H   0  0  0  0  0  0  0  0  0  0  0  0
   -1.8005    1.8277    2.4206 H   0  0  0  0  0  0  0  0  0  0  0  0
   -0.2344    0.2394    3.2984 H   0  0  0  0  0  0  0  0  0  0  0  0
   -1.3029   -1.0572    2.7787 H   0  0  0  0  0  0  0  0  0  0  0  0
    0.6813   -1.3664    1.3365 H   0  0  0  0  0  0  0  0  0  0  0  0
    1.4783    1.1489    1.8884 H   0  0  0  0  0  0  0  0  0  0  0  0
    1.7663    0.5725    0.2520 H   0  0  0  0  0  0  0  0  0  0  0  0
   -0.0878    2.7372    1.0106 H   0  0  0  0  0  0  0  0  0  0  0  0
    0.2384    2.1222   -0.6044 H   0  0  0  0  0  0  0  0  0  0  0  0
  1  2  2  3
  1  4  1  0
  1  5  1  0
  2  3  1  0
  2  6  1  0
  3  8  1  0
  3  9  1  0
  7 10  1  0
 10 11  1  0
 10 14  1  0
 10 17  1  0
 11 12  1  0
 11 16  1  0
 11 18  1  0
 12 13  1  0
 12 19  1  0
 12 20  1  0
 13 14  1  0
 13 21  1  0
 13 22  1  0
 14 15  1  0
 14 23  1  0
 15 16  1  0
 15 24  1  0
 15 25  1  0
 16 26  1  0
 16 27  1  0
M  RAD  1   3   2
M  END
>  <reaction>  (15) 
rxn_741

>  <mol_properties>  (15) 
{"1": {"label": "*0", "atom_type": "Cd"}, "2": {"label": "*1", "atom_type": "Cs"}, "6": {"label": "*2", "atom_type": "H0"}, "9": {"label": "*3", "atom_type": "Cs"}, "10": {"label": "*4", "atom_type": "Cs"}}

>  <type>  (15) 
unop_11

>  <geom_source>  (15) 
Heuristics

$$$$

     RDKit          3D

 27 27  0  0  0  0  0  0  0  0999 V2000
    2.3814   -0.9173   -2.6778 C   0  0  0  0  0  0  0  0  0  0  0  0
    2.3814   -0.9173   -1.3540 C   0  0  0  0  0  0  0  0  0  0  0  0
    2.3814    0.3049   -0.4935 C   0  0  0  0  0  3  0  0  0  0  0  0
    2.3814   -1.8400   -3.2443 H   0  0  0  0  0  0  0  0  0  0  0  0
    2.3814    0.0083   -3.2438 H   0  0  0  0  0  0  0  0  0  0  0  0
    2.3814   -1.8699   -0.8305 H   0  0  0  0  0  0  0  0  0  0  0  0
    1.3281    0.3254    0.2879 H   0  0  0  0  0  0  0  0  0  0  0  0
    2.3814    1.2153   -1.0941 H   0  0  0  0  0  0  0  0  0  0  0  0
    3.2591    0.3220    0.1577 H   0  0  0  0  0  0  0  0  0  0  0  0
    0.2759    0.3460    1.0686 C   0  0  0  0  0  0  0  0  0  0  0  0
   -0.6412   -0.8699    0.8804 C   0  0  0  0  0  0  0  0  0  0  0  0
   -1.8358   -0.4952    1.7716 C   0  0  0  0  0  0  0  0  0  0  0  0
   -1.9361    1.0460    1.5959 C   0  0  0  0  0  0  0  0  0  0  0  0
   -0.7863    1.3612    0.6261 C   0  0  0  0  0  0  0  0  0  0  0  0
   -1.1614    0.8273   -0.7654 C   0  0  0  0  0  0  0  0  0  0  0  0
   -1.0612   -0.7139   -0.5897 C   0  0  0  0  0  0  0  0  0  0  0  0
    0.6004    0.4848    2.1019 H   0  0  0  0  0  0  0  0  0  0  0  0
   -0.2063   -1.8411    1.1130 H   0  0  0  0  0  0  0  0  0  0  0  0
   -1.6400   -0.7593    2.8121 H   0  0  0  0  0  0  0  0  0  0  0  0
   -2.7469   -1.0138    1.4695 H   0  0  0  0  0  0  0  0  0  0  0  0
   -2.9015    1.3629    1.1986 H   0  0  0  0  0  0  0  0  0  0  0  0
   -1.7908    1.5594    2.5479 H   0  0  0  0  0  0  0  0  0  0  0  0
   -0.4827    2.4072    0.6288 H   0  0  0  0  0  0  0  0  0  0  0  0
   -2.1571    1.1526   -1.0708 H   0  0  0  0  0  0  0  0  0  0  0  0
   -0.4567    1.1827   -1.5189 H   0  0  0  0  0  0  0  0  0  0  0  0
   -2.0024   -1.2240   -0.8000 H   0  0  0  0  0  0  0  0  0  0  0  0
   -0.3058   -1.1360   -1.2547 H   0  0  0  0  0  0  0  0  0  0  0  0
  1  2  2  3
  1  4  1  0
  1  5  1  0
  2  3  1  0
  2  6  1  0
  3  8  1  0
  3  9  1  0
  7 10  1  0
 10 11  1  0
 10 14  1  0
 10 17  1  0
 11 12  1  0
 11 16  1  0
 11 18  1  0
 12 13  1  0
 12 19  1  0
 12 20  1  0
 13 14  1  0
 13 21  1  0
 13 22  1  0
 14 15  1  0
 14 23  1  0
 15 16  1  0
 15 24  1  0
 15 25  1  0
 16 26  1  0
 16 27  1  0
M  RAD  1   3   2
M  END
>  <reaction>  (16) 
rxn_741

>  <mol_properties>  (16) 
{"1": {"label": "*0", "atom_type": "Cd"}, "2": {"label": "*1", "atom_type": "Cs"}, "6": {"label": "*2", "atom_type": "H0"}, "9": {"label": "*3", "atom_type": "Cs"}, "10": {"label": "*4", "atom_type": "Cs"}}

>  <type>  (16) 
unop_12

>  <geom_source>  (16) 
Heuristics

$$$$

     RDKit          3D

 27 27  0  0  0  0  0  0  0  0999 V2000
   -1.0161    0.8496   -0.8623 C   0  0  0  0  0  0  0  0  0  0  0  0
   -1.3683   -0.8711    0.4915 C   0  0  0  0  0  0  0  0  0  0  0  0
   -0.3894   -0.4972   -0.5948 C   0  0  0  0  0  0  0  0  0  0  0  0
   -2.4735    0.4649   -1.1736 C   0  0  0  0  0  0  0  0  0  0  0  0
   -0.9633    1.4976    0.5318 C   0  0  0  0  0  0  0  0  0  0  0  0
   -2.7177   -0.7283   -0.2348 C   0  0  0  0  0  0  0  0  0  0  0  0
   -1.2075    0.3043    1.4706 C   0  0  0  0  0  0  0  0  0  0  0  0
    3.2811   -0.1980    0.6309 C   0  0  0  0  0  0  0  0  0  0  0  0
    2.2061   -0.5754   -0.3374 C   0  0  0  0  0  0  0  0  0  0  0  0
    4.5714   -0.2780    0.2989 C   0  0  0  0  0  3  0  0  0  0  0  0
   -0.5199    1.4429   -1.6597 H   0  0  0  0  0  0  0  0  0  0  0  0
   -1.1981   -1.8699    0.9467 H   0  0  0  0  0  0  0  0  0  0  0  0
   -0.4286   -1.1811   -1.4743 H   0  0  0  0  0  0  0  0  0  0  0  0
    0.8282   -0.4027   -0.1579 H   0  0  0  0  0  0  0  0  0  0  0  0
   -3.1792    1.3004   -0.9723 H   0  0  0  0  0  0  0  0  0  0  0  0
   -2.5703    0.1514   -2.2365 H   0  0  0  0  0  0  0  0  0  0  0  0
   -1.7372    2.2864    0.6564 H   0  0  0  0  0  0  0  0  0  0  0  0
    0.0415    1.9387    0.7142 H   0  0  0  0  0  0  0  0  0  0  0  0
   -3.5548   -0.5342    0.4710 H   0  0  0  0  0  0  0  0  0  0  0  0
   -2.9385   -1.6474   -0.8213 H   0  0  0  0  0  0  0  0  0  0  0  0
   -0.3268    0.1394    2.1298 H   0  0  0  0  0  0  0  0  0  0  0  0
   -2.1126    0.4521    2.0995 H   0  0  0  0  0  0  0  0  0  0  0  0
    3.0004    0.1468    1.6208 H   0  0  0  0  0  0  0  0  0  0  0  0
    2.3073   -1.6423   -0.6286 H   0  0  0  0  0  0  0  0  0  0  0  0
    2.2564    0.0703   -1.2396 H   0  0  0  0  0  0  0  0  0  0  0  0
    5.3354    0.0010    1.0173 H   0  0  0  0  0  0  0  0  0  0  0  0
    4.8739   -0.6205   -0.6863 H   0  0  0  0  0  0  0  0  0  0  0  0
  1  4  1  0
  1  5  1  0
  1  3  1  0
  1 11  1  0
  2  6  1  0
  2  7  1  0
  2  3  1  0
  2 12  1  0
  3 13  1  0
  3 14  1  0
  4  6  1  0
  4 15  1  0
  4 16  1  0
  5  7  1  0
  5 17  1  0
  5 18  1  0
  6 19  1  0
  6 20  1  0
  7 21  1  0
  7 22  1  0
  8  9  2  3
  8 10  1  0
  8 23  1  0
  9 24  1  0
  9 25  1  0
 10 26  1  0
 10 27  1  0
M  RAD  1  10   2
M  END
>  <reaction>  (17) 
rxn_741

>  <mol_properties>  (17) 
{"1": {"label": "*0", "atom_type": "Cd"}, "2": {"label": "*1", "atom_type": "Cs"}, "6": {"label": "*2", "atom_type": "H0"}, "9": {"label": "*3", "atom_type": "Cs"}, "10": {"label": "*4", "atom_type": "Cs"}}

>  <type>  (17) 
unop_13

>  <geom_source>  (17) 
AutoTST

$$$$
