
     RDKit          3D

  6  5  0  0  0  0  0  0  0  0999 V2000
   -0.6819   -0.1027   -0.0106 N   0  0  0  0  0  0  0  0  0  0  0  0
    0.6339    0.2147    0.0079 C   0  0  0  0  0  0  0  0  0  0  0  0
    1.0720    1.3374   -0.0025 O   0  0  0  0  0  0  0  0  0  0  0  0
   -1.3651    0.6341   -0.0350 H   0  0  0  0  0  0  0  0  0  0  0  0
   -0.9875   -1.0572   -0.0005 H   0  0  0  0  0  0  0  0  0  0  0  0
    1.2840   -0.6787    0.0343 H   0  0  0  0  0  0  0  0  0  0  0  0
  1  2  1  0
  1  4  1  0
  1  5  1  0
  2  3  2  0
  2  6  1  0
M  END
>  <reaction>  (1) 
rxn_3219

>  <mol_properties>  (1) 
{"1": {"label": "donator", "atom_type": "CO"}, "5": {"label": "d_hydrogen", "atom_type": "H0"}}

>  <type>  (1) 
r1h

$$$$

     RDKit          3D

  7  6  0  0  0  0  0  0  0  0999 V2000
   -1.3059    0.5497   -0.1304 N   0  0  0  0  0  2  0  0  0  0  0  0
   -0.2700   -0.4288    0.0448 C   0  0  0  0  0  0  0  0  0  0  0  0
    1.1109    0.0669    0.0401 C   0  0  0  0  0  0  0  0  0  0  0  0
    2.1758    0.4925    0.0308 N   0  0  0  0  0  0  0  0  0  0  0  0
   -0.8815    1.4733   -0.2339 H   0  0  0  0  0  0  0  0  0  0  0  0
   -0.3767   -1.1909   -0.7373 H   0  0  0  0  0  0  0  0  0  0  0  0
   -0.4527   -0.9628    0.9858 H   0  0  0  0  0  0  0  0  0  0  0  0
  1  2  1  0
  1  5  1  0
  2  3  1  0
  2  6  1  0
  2  7  1  0
  3  4  3  0
M  RAD  1   1   2
M  END
>  <reaction>  (2) 
rxn_3219

>  <mol_properties>  (2) 
{"0": {"label": "acceptor", "atom_type": "N3s"}}

>  <type>  (2) 
r2

$$$$

     RDKit          3D

  8  7  0  0  0  0  0  0  0  0999 V2000
   -1.0805    0.5317    0.0204 N   0  0  0  0  0  0  0  0  0  0  0  0
   -0.1080   -0.5393    0.0956 C   0  0  0  0  0  0  0  0  0  0  0  0
    1.2945   -0.1247   -0.1005 C   0  0  0  0  0  0  0  0  0  0  0  0
    2.3714    0.2386   -0.2580 N   0  0  0  0  0  0  0  0  0  0  0  0
   -1.0516    0.9857   -0.8822 H   0  0  0  0  0  0  0  0  0  0  0  0
   -0.9009    1.2352    0.7235 H   0  0  0  0  0  0  0  0  0  0  0  0
   -0.3427   -1.2965   -0.6542 H   0  0  0  0  0  0  0  0  0  0  0  0
   -0.1810   -1.0288    1.0680 H   0  0  0  0  0  0  0  0  0  0  0  0
  1  2  1  0
  1  5  1  0
  1  6  1  0
  2  3  1  0
  2  7  1  0
  2  8  1  0
  3  4  3  0
M  END
>  <reaction>  (3) 
rxn_3219

>  <mol_properties>  (3) 
{"0": {"label": "acceptor", "atom_type": "N3s"}, "7": {"label": "a_hydrogen", "atom_type": "H0"}}

>  <type>  (3) 
r2h

$$$$

     RDKit          3D

 13 11  0  0  0  0  0  0  0  0999 V2000
   -0.2244   -0.5897    1.5004 N   0  0  0  0  0  2  0  0  0  0  0  0
    0.8203   -1.3753    0.8735 C   0  0  0  0  0  0  0  0  0  0  0  0
    0.6011   -1.6424   -0.5558 C   0  0  0  0  0  0  0  0  0  0  0  0
    0.3620   -1.7720   -1.6714 N   0  0  0  0  0  0  0  0  0  0  0  0
   -1.1278   -0.9882    1.2406 H   0  0  0  0  0  0  0  0  0  0  0  0
    0.9123   -2.3377    1.3898 H   0  0  0  0  0  0  0  0  0  0  0  0
    1.7786   -0.8637    0.9829 H   0  0  0  0  0  0  0  0  0  0  0  0
   -0.4676    1.4120   -1.2117 N   0  0  0  0  0  0  0  0  0  0  0  0
   -0.4278    1.6658    0.1033 C   0  0  0  0  0  0  0  0  0  0  0  0
   -0.5134    2.7286    0.6474 O   0  0  0  0  0  0  0  0  0  0  0  0
   -0.5585    2.1757   -1.8613 H   0  0  0  0  0  0  0  0  0  0  0  0
   -0.3514    0.4765   -1.5646 H   0  0  0  0  0  0  0  0  0  0  0  0
   -0.2983    0.6340    0.7996 H   0  0  0  0  0  0  0  0  0  0  0  0
  1  2  1  0
  1  5  1  0
  2  3  1  0
  2  6  1  0
  2  7  1  0
  3  4  3  0
  8  9  1  0
  8 11  1  0
  8 12  1  0
  9 10  2  0
  9 13  1  0
M  RAD  1   1   2
M  END
>  <reaction>  (4) 
rxn_3219

>  <mol_properties>  (4) 
{"0": {"label": "*3", "atom_type": "N3s"}, "1": {"label": "*4", "atom_type": "Cs"}, "8": {"label": "*1", "atom_type": "CO"}, "9": {"label": "*0", "atom_type": "O2d"}, "12": {"label": "*2", "atom_type": "H0"}}

>  <type>  (4) 
ts

$$$$

     RDKit          3D

 13 11  0  0  0  0  0  0  0  0999 V2000
   -0.8566   -0.8162    0.4495 N   0  0  0  0  0  0  0  0  0  0  0  0
    0.3142   -1.0384    1.2731 C   0  0  0  0  0  0  0  0  0  0  0  0
    1.3848   -1.8297    0.6367 C   0  0  0  0  0  0  0  0  0  0  0  0
    2.1927   -2.4481    0.1061 N   0  0  0  0  0  0  0  0  0  0  0  0
   -1.2840   -1.6923    0.1822 H   0  0  0  0  0  0  0  0  0  0  0  0
    0.0206   -1.5480    2.1921 H   0  0  0  0  0  0  0  0  0  0  0  0
    0.7375   -0.0775    1.5697 H   0  0  0  0  0  0  0  0  0  0  0  0
   -0.8566    1.5297   -1.8756 N   0  0  0  0  0  0  0  0  0  0  0  0
   -0.8566    1.5297   -0.5220 C   0  0  0  0  0  3  0  0  0  0  0  0
   -0.8566    2.5185    0.1670 O   0  0  0  0  0  0  0  0  0  0  0  0
   -0.8566    2.4063   -2.3673 H   0  0  0  0  0  0  0  0  0  0  0  0
   -0.8566    0.6733   -2.3963 H   0  0  0  0  0  0  0  0  0  0  0  0
   -0.8566    0.3043   -0.0146 H   0  0  0  0  0  0  0  0  0  0  0  0
  1  2  1  0
  1  5  1  0
  1 13  1  0
  2  3  1  0
  2  6  1  0
  2  7  1  0
  3  4  3  0
  8  9  1  0
  8 11  1  0
  8 12  1  0
  9 10  2  0
M  RAD  1   9   2
M  END
>  <reaction>  (5) 
rxn_3219

>  <mol_properties>  (5) 
{"0": {"label": "*3", "atom_type": "N3s"}, "1": {"label": "*4", "atom_type": "Cs"}, "8": {"label": "*1", "atom_type": "CO"}, "9": {"label": "*0", "atom_type": "O2d"}, "12": {"label": "*2", "atom_type": "H0"}}

>  <type>  (5) 
unop_1

>  <geom_source>  (5) 
Heuristics

$$$$

     RDKit          3D

 13 11  0  0  0  0  0  0  0  0999 V2000
    0.0250   -0.6548    1.3186 N   0  0  0  0  0  0  0  0  0  0  0  0
    0.7010   -1.5835    0.4360 C   0  0  0  0  0  0  0  0  0  0  0  0
   -0.0982   -2.0456   -0.7153 C   0  0  0  0  0  0  0  0  0  0  0  0
   -0.7525   -2.3803   -1.5964 N   0  0  0  0  0  0  0  0  0  0  0  0
   -0.8091   -1.0689    1.7114 H   0  0  0  0  0  0  0  0  0  0  0  0
    1.0129   -2.4621    1.0029 H   0  0  0  0  0  0  0  0  0  0  0  0
    1.6106   -1.1212    0.0497 H   0  0  0  0  0  0  0  0  0  0  0  0
    0.0250    1.6911   -1.0065 N   0  0  0  0  0  0  0  0  0  0  0  0
    0.0250    1.6911    0.3471 C   0  0  0  0  0  3  0  0  0  0  0  0
    0.0250    2.6800    1.0361 O   0  0  0  0  0  0  0  0  0  0  0  0
    0.0250    2.5678   -1.4982 H   0  0  0  0  0  0  0  0  0  0  0  0
    0.0250    0.8348   -1.5272 H   0  0  0  0  0  0  0  0  0  0  0  0
    0.0250    0.4658    0.8545 H   0  0  0  0  0  0  0  0  0  0  0  0
  1  2  1  0
  1  5  1  0
  1 13  1  0
  2  3  1  0
  2  6  1  0
  2  7  1  0
  3  4  3  0
  8  9  1  0
  8 11  1  0
  8 12  1  0
  9 10  2  0
M  RAD  1   9   2
M  END
>  <reaction>  (6) 
rxn_3219

>  <mol_properties>  (6) 
{"0": {"label": "*3", "atom_type": "N3s"}, "1": {"label": "*4", "atom_type": "Cs"}, "8": {"label": "*1", "atom_type": "CO"}, "9": {"label": "*0", "atom_type": "O2d"}, "12": {"label": "*2", "atom_type": "H0"}}

>  <type>  (6) 
unop_2

>  <geom_source>  (6) 
Heuristics

$$$$

     RDKit          3D

 13 11  0  0  0  0  0  0  0  0999 V2000
   -0.7971   -1.0713    0.0591 N   0  0  0  0  0  0  0  0  0  0  0  0
   -0.1211   -1.1041    1.3399 C   0  0  0  0  0  0  0  0  0  0  0  0
    1.3227   -1.4023    1.2769 C   0  0  0  0  0  0  0  0  0  0  0  0
    2.4420   -1.6371    1.1847 N   0  0  0  0  0  0  0  0  0  0  0  0
   -0.7205   -1.9607   -0.4148 H   0  0  0  0  0  0  0  0  0  0  0  0
   -0.5913   -1.8524    1.9798 H   0  0  0  0  0  0  0  0  0  0  0  0
   -0.2442   -0.1424    1.8405 H   0  0  0  0  0  0  0  0  0  0  0  0
   -0.7971    1.2746   -2.2660 N   0  0  0  0  0  0  0  0  0  0  0  0
   -0.7971    1.2746   -0.9124 C   0  0  0  0  0  3  0  0  0  0  0  0
   -0.7971    2.2635   -0.2234 O   0  0  0  0  0  0  0  0  0  0  0  0
   -0.7971    2.1513   -2.7577 H   0  0  0  0  0  0  0  0  0  0  0  0
   -0.7971    0.4183   -2.7868 H   0  0  0  0  0  0  0  0  0  0  0  0
   -0.7971    0.0493   -0.4050 H   0  0  0  0  0  0  0  0  0  0  0  0
  1  2  1  0
  1  5  1  0
  1 13  1  0
  2  3  1  0
  2  6  1  0
  2  7  1  0
  3  4  3  0
  8  9  1  0
  8 11  1  0
  8 12  1  0
  9 10  2  0
M  RAD  1   9   2
M  END
>  <reaction>  (7) 
rxn_3219

>  <mol_properties>  (7) 
{"0": {"label": "*3", "atom_type": "N3s"}, "1": {"label": "*4", "atom_type": "Cs"}, "8": {"label": "*1", "atom_type": "CO"}, "9": {"label": "*0", "atom_type": "O2d"}, "12": {"label": "*2", "atom_type": "H0"}}

>  <type>  (7) 
unop_3

>  <geom_source>  (7) 
Heuristics

$$$$

     RDKit          3D

 13 11  0  0  0  0  0  0  0  0999 V2000
    0.9008   -1.2085    0.8330 N   0  0  0  0  0  0  0  0  0  0  0  0
   -0.2700   -1.9480    0.4075 C   0  0  0  0  0  0  0  0  0  0  0  0
   -1.4451   -1.1198    0.0746 C   0  0  0  0  0  0  0  0  0  0  0  0
   -2.3356   -0.4404   -0.1746 N   0  0  0  0  0  0  0  0  0  0  0  0
    0.7048   -0.6636    1.6614 H   0  0  0  0  0  0  0  0  0  0  0  0
   -0.5631   -2.6473    1.1921 H   0  0  0  0  0  0  0  0  0  0  0  0
   -0.0222   -2.5477   -0.4696 H   0  0  0  0  0  0  0  0  0  0  0  0
    0.9008    1.1374   -1.4921 N   0  0  0  0  0  0  0  0  0  0  0  0
    0.9008    1.1374   -0.1385 C   0  0  0  0  0  3  0  0  0  0  0  0
    0.9008    2.1262    0.5505 O   0  0  0  0  0  0  0  0  0  0  0  0
    0.9008    2.0140   -1.9838 H   0  0  0  0  0  0  0  0  0  0  0  0
    0.9008    0.2810   -2.0129 H   0  0  0  0  0  0  0  0  0  0  0  0
    0.9008   -0.0880    0.3689 H   0  0  0  0  0  0  0  0  0  0  0  0
  1  2  1  0
  1  5  1  0
  1 13  1  0
  2  3  1  0
  2  6  1  0
  2  7  1  0
  3  4  3  0
  8  9  1  0
  8 11  1  0
  8 12  1  0
  9 10  2  0
M  RAD  1   9   2
M  END
>  <reaction>  (8) 
rxn_3219

>  <mol_properties>  (8) 
{"0": {"label": "*3", "atom_type": "N3s"}, "1": {"label": "*4", "atom_type": "Cs"}, "8": {"label": "*1", "atom_type": "CO"}, "9": {"label": "*0", "atom_type": "O2d"}, "12": {"label": "*2", "atom_type": "H0"}}

>  <type>  (8) 
unop_4

>  <geom_source>  (8) 
Heuristics

$$$$

     RDKit          3D

 13 11  0  0  0  0  0  0  0  0999 V2000
   -0.4274   -1.4602   -0.2528 N   0  0  0  0  0  0  0  0  0  0  0  0
   -0.4274   -1.4237    1.1953 C   0  0  0  0  0  0  0  0  0  0  0  0
    0.7291   -0.7376    1.8030 C   0  0  0  0  0  0  0  0  0  0  0  0
    1.6436   -0.1962    2.2356 N   0  0  0  0  0  0  0  0  0  0  0  0
    0.3913   -1.9377   -0.6040 H   0  0  0  0  0  0  0  0  0  0  0  0
   -0.4562   -2.4426    1.5845 H   0  0  0  0  0  0  0  0  0  0  0  0
   -1.3343   -0.9289    1.5464 H   0  0  0  0  0  0  0  0  0  0  0  0
   -0.4274    0.8858   -2.5779 N   0  0  0  0  0  0  0  0  0  0  0  0
   -0.4274    0.8858   -1.2243 C   0  0  0  0  0  3  0  0  0  0  0  0
   -0.4274    1.8746   -0.5353 O   0  0  0  0  0  0  0  0  0  0  0  0
   -0.4274    1.7624   -3.0696 H   0  0  0  0  0  0  0  0  0  0  0  0
   -0.4274    0.0294   -3.0987 H   0  0  0  0  0  0  0  0  0  0  0  0
   -0.4274   -0.3396   -0.7169 H   0  0  0  0  0  0  0  0  0  0  0  0
  1  2  1  0
  1  5  1  0
  1 13  1  0
  2  3  1  0
  2  6  1  0
  2  7  1  0
  3  4  3  0
  8  9  1  0
  8 11  1  0
  8 12  1  0
  9 10  2  0
M  RAD  1   9   2
M  END
>  <reaction>  (9) 
rxn_3219

>  <mol_properties>  (9) 
{"0": {"label": "*3", "atom_type": "N3s"}, "1": {"label": "*4", "atom_type": "Cs"}, "8": {"label": "*1", "atom_type": "CO"}, "9": {"label": "*0", "atom_type": "O2d"}, "12": {"label": "*2", "atom_type": "H0"}}

>  <type>  (9) 
unop_5

>  <geom_source>  (9) 
Heuristics

$$$$

     RDKit          3D

 13 11  0  0  0  0  0  0  0  0999 V2000
    0.9198   -1.3936    0.4524 N   0  0  0  0  0  0  0  0  0  0  0  0
   -0.4321   -1.8744    0.6515 C   0  0  0  0  0  0  0  0  0  0  0  0
   -1.4708   -0.8265    0.6751 C   0  0  0  0  0  0  0  0  0  0  0  0
   -2.2474    0.0181    0.6871 N   0  0  0  0  0  0  0  0  0  0  0  0
    1.1901   -0.7551    1.1878 H   0  0  0  0  0  0  0  0  0  0  0  0
   -0.4876   -2.4238    1.5926 H   0  0  0  0  0  0  0  0  0  0  0  0
   -0.6864   -2.5819   -0.1392 H   0  0  0  0  0  0  0  0  0  0  0  0
    0.9198    0.9523   -1.8726 N   0  0  0  0  0  0  0  0  0  0  0  0
    0.9198    0.9523   -0.5190 C   0  0  0  0  0  3  0  0  0  0  0  0
    0.9198    1.9412    0.1700 O   0  0  0  0  0  0  0  0  0  0  0  0
    0.9198    1.8290   -2.3643 H   0  0  0  0  0  0  0  0  0  0  0  0
    0.9198    0.0960   -2.3934 H   0  0  0  0  0  0  0  0  0  0  0  0
    0.9198   -0.2730   -0.0116 H   0  0  0  0  0  0  0  0  0  0  0  0
  1  2  1  0
  1  5  1  0
  1 13  1  0
  2  3  1  0
  2  6  1  0
  2  7  1  0
  3  4  3  0
  8  9  1  0
  8 11  1  0
  8 12  1  0
  9 10  2  0
M  RAD  1   9   2
M  END
>  <reaction>  (10) 
rxn_3219

>  <mol_properties>  (10) 
{"0": {"label": "*3", "atom_type": "N3s"}, "1": {"label": "*4", "atom_type": "Cs"}, "8": {"label": "*1", "atom_type": "CO"}, "9": {"label": "*0", "atom_type": "O2d"}, "12": {"label": "*2", "atom_type": "H0"}}

>  <type>  (10) 
unop_6

>  <geom_source>  (10) 
Heuristics

$$$$

     RDKit          3D

 13 11  0  0  0  0  0  0  0  0999 V2000
    0.7193   -1.5611    0.0534 N   0  0  0  0  0  0  0  0  0  0  0  0
   -0.4515   -1.7833    0.8770 C   0  0  0  0  0  0  0  0  0  0  0  0
   -1.1506   -0.5589    1.3123 C   0  0  0  0  0  0  0  0  0  0  0  0
   -1.6647    0.4167    1.6293 N   0  0  0  0  0  0  0  0  0  0  0  0
    1.4097   -1.0103    0.5448 H   0  0  0  0  0  0  0  0  0  0  0  0
   -0.1671   -2.3432    1.7693 H   0  0  0  0  0  0  0  0  0  0  0  0
   -1.1660   -2.4031    0.3332 H   0  0  0  0  0  0  0  0  0  0  0  0
    0.7193    0.7848   -2.2717 N   0  0  0  0  0  0  0  0  0  0  0  0
    0.7193    0.7848   -0.9181 C   0  0  0  0  0  3  0  0  0  0  0  0
    0.7193    1.7736   -0.2291 O   0  0  0  0  0  0  0  0  0  0  0  0
    0.7193    1.6614   -2.7633 H   0  0  0  0  0  0  0  0  0  0  0  0
    0.7193   -0.0716   -2.7924 H   0  0  0  0  0  0  0  0  0  0  0  0
    0.7193   -0.4406   -0.4106 H   0  0  0  0  0  0  0  0  0  0  0  0
  1  2  1  0
  1  5  1  0
  1 13  1  0
  2  3  1  0
  2  6  1  0
  2  7  1  0
  3  4  3  0
  8  9  1  0
  8 11  1  0
  8 12  1  0
  9 10  2  0
M  RAD  1   9   2
M  END
>  <reaction>  (11) 
rxn_3219

>  <mol_properties>  (11) 
{"0": {"label": "*3", "atom_type": "N3s"}, "1": {"label": "*4", "atom_type": "Cs"}, "8": {"label": "*1", "atom_type": "CO"}, "9": {"label": "*0", "atom_type": "O2d"}, "12": {"label": "*2", "atom_type": "H0"}}

>  <type>  (11) 
unop_7

>  <geom_source>  (11) 
Heuristics

$$$$

     RDKit          3D

 13 11  0  0  0  0  0  0  0  0999 V2000
   -0.7165   -0.6605    0.8422 N   0  0  0  0  0  0  0  0  0  0  0  0
    0.6354   -1.1413    1.0413 C   0  0  0  0  0  0  0  0  0  0  0  0
    1.1240   -2.0770    0.0102 C   0  0  0  0  0  0  0  0  0  0  0  0
    1.4656   -2.8011   -0.8118 N   0  0  0  0  0  0  0  0  0  0  0  0
   -1.3762   -1.4262    0.8310 H   0  0  0  0  0  0  0  0  0  0  0  0
    0.7046   -1.6412    2.0087 H   0  0  0  0  0  0  0  0  0  0  0  0
    1.3210   -0.2933    1.0776 H   0  0  0  0  0  0  0  0  0  0  0  0
   -0.7165    1.6854   -1.4829 N   0  0  0  0  0  0  0  0  0  0  0  0
   -0.7165    1.6854   -0.1293 C   0  0  0  0  0  3  0  0  0  0  0  0
   -0.7165    2.6742    0.5597 O   0  0  0  0  0  0  0  0  0  0  0  0
   -0.7165    2.5620   -1.9745 H   0  0  0  0  0  0  0  0  0  0  0  0
   -0.7165    0.8290   -2.0036 H   0  0  0  0  0  0  0  0  0  0  0  0
   -0.7165    0.4600    0.3782 H   0  0  0  0  0  0  0  0  0  0  0  0
  1  2  1  0
  1  5  1  0
  1 13  1  0
  2  3  1  0
  2  6  1  0
  2  7  1  0
  3  4  3  0
  8  9  1  0
  8 11  1  0
  8 12  1  0
  9 10  2  0
M  RAD  1   9   2
M  END
>  <reaction>  (12) 
rxn_3219

>  <mol_properties>  (12) 
{"0": {"label": "*3", "atom_type": "N3s"}, "1": {"label": "*4", "atom_type": "Cs"}, "8": {"label": "*1", "atom_type": "CO"}, "9": {"label": "*0", "atom_type": "O2d"}, "12": {"label": "*2", "atom_type": "H0"}}

>  <type>  (12) 
unop_8

>  <geom_source>  (12) 
Heuristics

$$$$

     RDKit          3D

 13 11  0  0  0  0  0  0  0  0999 V2000
    0.7247   -1.0173    1.1259 N   0  0  0  0  0  0  0  0  0  0  0  0
    0.0488   -1.9460    0.2432 C   0  0  0  0  0  0  0  0  0  0  0  0
   -1.1808   -1.4272   -0.3865 C   0  0  0  0  0  0  0  0  0  0  0  0
   -2.1307   -0.9862   -0.8552 N   0  0  0  0  0  0  0  0  0  0  0  0
    0.1228   -0.7371    1.8879 H   0  0  0  0  0  0  0  0  0  0  0  0
   -0.2126   -2.8490    0.7971 H   0  0  0  0  0  0  0  0  0  0  0  0
    0.7299   -2.2529   -0.5520 H   0  0  0  0  0  0  0  0  0  0  0  0
    0.7247    1.3286   -1.1992 N   0  0  0  0  0  0  0  0  0  0  0  0
    0.7247    1.3286    0.1544 C   0  0  0  0  0  3  0  0  0  0  0  0
    0.7247    2.3175    0.8434 O   0  0  0  0  0  0  0  0  0  0  0  0
    0.7247    2.2053   -1.6909 H   0  0  0  0  0  0  0  0  0  0  0  0
    0.7247    0.4723   -1.7200 H   0  0  0  0  0  0  0  0  0  0  0  0
    0.7247    0.1033    0.6618 H   0  0  0  0  0  0  0  0  0  0  0  0
  1  2  1  0
  1  5  1  0
  1 13  1  0
  2  3  1  0
  2  6  1  0
  2  7  1  0
  3  4  3  0
  8  9  1  0
  8 11  1  0
  8 12  1  0
  9 10  2  0
M  RAD  1   9   2
M  END
>  <reaction>  (13) 
rxn_3219

>  <mol_properties>  (13) 
{"0": {"label": "*3", "atom_type": "N3s"}, "1": {"label": "*4", "atom_type": "Cs"}, "8": {"label": "*1", "atom_type": "CO"}, "9": {"label": "*0", "atom_type": "O2d"}, "12": {"label": "*2", "atom_type": "H0"}}

>  <type>  (13) 
unop_9

>  <geom_source>  (13) 
Heuristics

$$$$

     RDKit          3D

 13 11  0  0  0  0  0  0  0  0999 V2000
   -0.3976   -0.5985    1.1574 N   0  0  0  0  0  0  0  0  0  0  0  0
    0.7732   -1.3379    0.7319 C   0  0  0  0  0  0  0  0  0  0  0  0
    0.5867   -2.1606   -0.4788 C   0  0  0  0  0  0  0  0  0  0  0  0
    0.4005   -2.7867   -1.4221 N   0  0  0  0  0  0  0  0  0  0  0  0
   -1.1655   -1.2222    1.3644 H   0  0  0  0  0  0  0  0  0  0  0  0
    1.1003   -1.9960    1.5384 H   0  0  0  0  0  0  0  0  0  0  0  0
    1.5930   -0.6430    0.5431 H   0  0  0  0  0  0  0  0  0  0  0  0
   -0.3976    1.7475   -1.1677 N   0  0  0  0  0  0  0  0  0  0  0  0
   -0.3976    1.7475    0.1859 C   0  0  0  0  0  3  0  0  0  0  0  0
   -0.3976    2.7363    0.8749 O   0  0  0  0  0  0  0  0  0  0  0  0
   -0.3976    2.6241   -1.6594 H   0  0  0  0  0  0  0  0  0  0  0  0
   -0.3976    0.8911   -1.6885 H   0  0  0  0  0  0  0  0  0  0  0  0
   -0.3976    0.5221    0.6933 H   0  0  0  0  0  0  0  0  0  0  0  0
  1  2  1  0
  1  5  1  0
  1 13  1  0
  2  3  1  0
  2  6  1  0
  2  7  1  0
  3  4  3  0
  8  9  1  0
  8 11  1  0
  8 12  1  0
  9 10  2  0
M  RAD  1   9   2
M  END
>  <reaction>  (14) 
rxn_3219

>  <mol_properties>  (14) 
{"0": {"label": "*3", "atom_type": "N3s"}, "1": {"label": "*4", "atom_type": "Cs"}, "8": {"label": "*1", "atom_type": "CO"}, "9": {"label": "*0", "atom_type": "O2d"}, "12": {"label": "*2", "atom_type": "H0"}}

>  <type>  (14) 
unop_10

>  <geom_source>  (14) 
Heuristics

$$$$

     RDKit          3D

 13 11  0  0  0  0  0  0  0  0999 V2000
    0.2448   -1.6473   -0.2472 N   0  0  0  0  0  0  0  0  0  0  0  0
   -0.4312   -1.6801    1.0336 C   0  0  0  0  0  0  0  0  0  0  0  0
   -0.3805   -0.4197    1.7993 C   0  0  0  0  0  0  0  0  0  0  0  0
   -0.3179    0.5781    2.3625 N   0  0  0  0  0  0  0  0  0  0  0  0
    1.2261   -1.4334   -0.1344 H   0  0  0  0  0  0  0  0  0  0  0  0
    0.0017   -2.4673    1.6529 H   0  0  0  0  0  0  0  0  0  0  0  0
   -1.4802   -1.9407    0.8843 H   0  0  0  0  0  0  0  0  0  0  0  0
    0.2448    0.6987   -2.5723 N   0  0  0  0  0  0  0  0  0  0  0  0
    0.2448    0.6987   -1.2187 C   0  0  0  0  0  3  0  0  0  0  0  0
    0.2448    1.6875   -0.5297 O   0  0  0  0  0  0  0  0  0  0  0  0
    0.2448    1.5753   -3.0639 H   0  0  0  0  0  0  0  0  0  0  0  0
    0.2448   -0.1577   -3.0930 H   0  0  0  0  0  0  0  0  0  0  0  0
    0.2448   -0.5267   -0.7112 H   0  0  0  0  0  0  0  0  0  0  0  0
  1  2  1  0
  1  5  1  0
  1 13  1  0
  2  3  1  0
  2  6  1  0
  2  7  1  0
  3  4  3  0
  8  9  1  0
  8 11  1  0
  8 12  1  0
  9 10  2  0
M  RAD  1   9   2
M  END
>  <reaction>  (15) 
rxn_3219

>  <mol_properties>  (15) 
{"0": {"label": "*3", "atom_type": "N3s"}, "1": {"label": "*4", "atom_type": "Cs"}, "8": {"label": "*1", "atom_type": "CO"}, "9": {"label": "*0", "atom_type": "O2d"}, "12": {"label": "*2", "atom_type": "H0"}}

>  <type>  (15) 
unop_11

>  <geom_source>  (15) 
Heuristics

$$$$

     RDKit          3D

 13 11  0  0  0  0  0  0  0  0999 V2000
    0.4274   -0.8177    1.2986 N   0  0  0  0  0  0  0  0  0  0  0  0
    0.4274   -1.8157    0.2486 C   0  0  0  0  0  0  0  0  0  0  0  0
   -0.7291   -1.7601   -0.6662 C   0  0  0  0  0  0  0  0  0  0  0  0
   -1.6436   -1.6831   -1.3549 N   0  0  0  0  0  0  0  0  0  0  0  0
   -0.3913   -0.9072    1.8845 H   0  0  0  0  0  0  0  0  0  0  0  0
    0.4562   -2.8115    0.6937 H   0  0  0  0  0  0  0  0  0  0  0  0
    1.3343   -1.7140   -0.3495 H   0  0  0  0  0  0  0  0  0  0  0  0
    0.4274    1.5282   -1.0265 N   0  0  0  0  0  0  0  0  0  0  0  0
    0.4274    1.5282    0.3271 C   0  0  0  0  0  3  0  0  0  0  0  0
    0.4274    2.5171    1.0161 O   0  0  0  0  0  0  0  0  0  0  0  0
    0.4274    2.4049   -1.5182 H   0  0  0  0  0  0  0  0  0  0  0  0
    0.4274    0.6719   -1.5473 H   0  0  0  0  0  0  0  0  0  0  0  0
    0.4274    0.3029    0.8345 H   0  0  0  0  0  0  0  0  0  0  0  0
  1  2  1  0
  1  5  1  0
  1 13  1  0
  2  3  1  0
  2  6  1  0
  2  7  1  0
  3  4  3  0
  8  9  1  0
  8 11  1  0
  8 12  1  0
  9 10  2  0
M  RAD  1   9   2
M  END
>  <reaction>  (16) 
rxn_3219

>  <mol_properties>  (16) 
{"0": {"label": "*3", "atom_type": "N3s"}, "1": {"label": "*4", "atom_type": "Cs"}, "8": {"label": "*1", "atom_type": "CO"}, "9": {"label": "*0", "atom_type": "O2d"}, "12": {"label": "*2", "atom_type": "H0"}}

>  <type>  (16) 
unop_12

>  <geom_source>  (16) 
Heuristics

$$$$

     RDKit          3D

 13 11  0  0  0  0  0  0  0  0999 V2000
    0.0250   -0.6548    1.3186 N   0  0  0  0  0  0  0  0  0  0  0  0
    0.7010   -1.5835    0.4360 C   0  0  0  0  0  0  0  0  0  0  0  0
   -0.0982   -2.0456   -0.7153 C   0  0  0  0  0  0  0  0  0  0  0  0
   -0.7525   -2.3803   -1.5964 N   0  0  0  0  0  0  0  0  0  0  0  0
   -0.8091   -1.0689    1.7114 H   0  0  0  0  0  0  0  0  0  0  0  0
    1.0129   -2.4621    1.0029 H   0  0  0  0  0  0  0  0  0  0  0  0
    1.6106   -1.1212    0.0497 H   0  0  0  0  0  0  0  0  0  0  0  0
    0.0250    1.6911   -1.0065 N   0  0  0  0  0  0  0  0  0  0  0  0
    0.0250    1.6911    0.3471 C   0  0  0  0  0  3  0  0  0  0  0  0
    0.0250    2.6800    1.0361 O   0  0  0  0  0  0  0  0  0  0  0  0
    0.0250    2.5678   -1.4982 H   0  0  0  0  0  0  0  0  0  0  0  0
    0.0250    0.8348   -1.5272 H   0  0  0  0  0  0  0  0  0  0  0  0
    0.0250    0.4658    0.8546 H   0  0  0  0  0  0  0  0  0  0  0  0
  1  2  1  0
  1  5  1  0
  1 13  1  0
  2  3  1  0
  2  6  1  0
  2  7  1  0
  3  4  3  0
  8  9  1  0
  8 11  1  0
  8 12  1  0
  9 10  2  0
M  RAD  1   9   2
M  END
>  <reaction>  (17) 
rxn_3219

>  <mol_properties>  (17) 
{"0": {"label": "*3", "atom_type": "N3s"}, "1": {"label": "*4", "atom_type": "Cs"}, "8": {"label": "*1", "atom_type": "CO"}, "9": {"label": "*0", "atom_type": "O2d"}, "12": {"label": "*2", "atom_type": "H0"}}

>  <type>  (17) 
unop_13

>  <geom_source>  (17) 
gaussian_log

$$$$
