
     RDKit          3D

  9  8  0  0  0  0  0  0  0  0999 V2000
   -0.9895    0.3048    0.1041 C   0  0  0  0  0  0  0  0  0  0  0  0
    0.3761   -0.3562    0.0721 C   0  0  0  0  0  0  0  0  0  0  0  0
    0.3441   -1.6564   -0.4834 O   0  0  0  0  0  0  0  0  0  0  0  0
   -1.6997   -0.3114    0.6572 H   0  0  0  0  0  0  0  0  0  0  0  0
   -0.9320    1.2848    0.5822 H   0  0  0  0  0  0  0  0  0  0  0  0
   -1.3774    0.4507   -0.9077 H   0  0  0  0  0  0  0  0  0  0  0  0
    0.7581   -0.4813    1.0862 H   0  0  0  0  0  0  0  0  0  0  0  0
    1.0900    0.2787   -0.4681 H   0  0  0  0  0  0  0  0  0  0  0  0
    0.0089   -1.5959   -1.3792 H   0  0  0  0  0  0  0  0  0  0  0  0
  1  2  1  0
  1  4  1  0
  1  5  1  0
  1  6  1  0
  2  3  1  0
  2  7  1  0
  2  8  1  0
  3  9  1  0
M  END
>  <reaction>  (1) 
rxn_233

>  <mol_properties>  (1) 
{"2": {"label": "donator", "atom_type": "O2s"}, "8": {"label": "d_hydrogen", "atom_type": "H0"}}

>  <type>  (1) 
r1h

$$$$

     RDKit          3D

  4  3  0  0  0  0  0  0  0  0999 V2000
    0.0000    0.0000    0.0000 C   0  0  0  0  0  3  0  0  0  0  0  0
    1.0638   -0.1747    0.0540 H   0  0  0  0  0  0  0  0  0  0  0  0
   -0.6833   -0.8351   -0.0280 H   0  0  0  0  0  0  0  0  0  0  0  0
   -0.3805    1.0098   -0.0260 H   0  0  0  0  0  0  0  0  0  0  0  0
  1  2  1  0
  1  3  1  0
  1  4  1  0
M  RAD  1   1   2
M  END
>  <reaction>  (2) 
rxn_233

>  <mol_properties>  (2) 
{"0": {"label": "acceptor", "atom_type": "Cs"}}

>  <type>  (2) 
r2

$$$$

     RDKit          3D

  5  4  0  0  0  0  0  0  0  0999 V2000
    0.0000    0.0000    0.0000 C   0  0  0  0  0  0  0  0  0  0  0  0
   -0.6486   -0.7720   -0.4113 H   0  0  0  0  0  0  0  0  0  0  0  0
   -0.3482    0.9787   -0.3267 H   0  0  0  0  0  0  0  0  0  0  0  0
   -0.0223   -0.0487    1.0876 H   0  0  0  0  0  0  0  0  0  0  0  0
    1.0191   -0.1580   -0.3496 H   0  0  0  0  0  0  0  0  0  0  0  0
  1  2  1  0
  1  3  1  0
  1  4  1  0
  1  5  1  0
M  END
>  <reaction>  (3) 
rxn_233

>  <mol_properties>  (3) 
{"0": {"label": "a_hydrogen", "atom_type": "H0"}, "1": {"label": "acceptor", "atom_type": "Cs"}}

>  <type>  (3) 
r2h

$$$$

     RDKit          3D

 13 11  0  0  0  0  0  0  0  0999 V2000
    0.6363   -0.9413   -1.2708 C   0  0  0  0  0  0  0  0  0  0  0  0
    0.4620   -0.9965    0.2370 C   0  0  0  0  0  0  0  0  0  0  0  0
    0.5751    0.2467    0.8648 O   0  0  0  0  0  0  0  0  0  0  0  0
    1.5855   -0.4692   -1.5268 H   0  0  0  0  0  0  0  0  0  0  0  0
    0.6182   -1.9460   -1.6985 H   0  0  0  0  0  0  0  0  0  0  0  0
   -0.1682   -0.3632   -1.7303 H   0  0  0  0  0  0  0  0  0  0  0  0
    1.2583   -1.6034    0.6853 H   0  0  0  0  0  0  0  0  0  0  0  0
   -0.4851   -1.4874    0.4992 H   0  0  0  0  0  0  0  0  0  0  0  0
   -0.3825    0.9088    0.5499 H   0  0  0  0  0  0  0  0  0  0  0  0
   -1.4663    1.5026    0.1782 C   0  0  0  0  0  3  0  0  0  0  0  0
   -2.1822    0.7070   -0.0081 H   0  0  0  0  0  0  0  0  0  0  0  0
   -1.7170    2.1241    1.0329 H   0  0  0  0  0  0  0  0  0  0  0  0
   -1.1939    2.0648   -0.7097 H   0  0  0  0  0  0  0  0  0  0  0  0
  1  2  1  0
  1  4  1  0
  1  5  1  0
  1  6  1  0
  2  3  1  0
  2  7  1  0
  2  8  1  0
  3  9  1  0
 10 11  1  0
 10 12  1  0
 10 13  1  0
M  RAD  1  10   2
M  END
>  <reaction>  (4) 
rxn_233

>  <mol_properties>  (4) 
{"1": {"label": "*0", "atom_type": "Cs"}, "2": {"label": "*1", "atom_type": "O2s"}, "8": {"label": "*2", "atom_type": "H0"}, "9": {"label": "*3", "atom_type": "Cs"}, "10": {"label": "*4", "atom_type": "H0"}}

>  <type>  (4) 
ts

$$$$

     RDKit          3D

 13 11  0  0  0  0  0  0  0  0999 V2000
    0.5177   -0.9848   -1.2241 C   0  0  0  0  0  0  0  0  0  0  0  0
    0.5177   -0.9848    0.2934 C   0  0  0  0  0  0  0  0  0  0  0  0
    0.5177    0.3183    0.8428 O   0  0  0  0  0  0  0  0  0  0  0  0
    1.3738   -0.4273   -1.6064 H   0  0  0  0  0  0  0  0  0  0  0  0
    0.5661   -2.0054   -1.6093 H   0  0  0  0  0  0  0  0  0  0  0  0
   -0.3937   -0.5247   -1.6152 H   0  0  0  0  0  0  0  0  0  0  0  0
    1.4242   -1.4605    0.6703 H   0  0  0  0  0  0  0  0  0  0  0  0
   -0.3345   -1.5646    0.6707 H   0  0  0  0  0  0  0  0  0  0  0  0
   -0.4206    0.8703    0.4719 H   0  0  0  0  0  0  0  0  0  0  0  0
   -1.4867    1.4975    0.0505 C   0  0  0  0  0  3  0  0  0  0  0  0
   -2.0962    1.7910    0.9038 H   0  0  0  0  0  0  0  0  0  0  0  0
   -0.7677    2.3132   -0.0078 H   0  0  0  0  0  0  0  0  0  0  0  0
   -2.1941    1.5775   -0.7736 H   0  0  0  0  0  0  0  0  0  0  0  0
  1  2  1  0
  1  4  1  0
  1  5  1  0
  1  6  1  0
  2  3  1  0
  2  7  1  0
  2  8  1  0
  3  9  1  0
 10 11  1  0
 10 12  1  0
 10 13  1  0
M  RAD  1  10   2
M  END
>  <reaction>  (5) 
rxn_233

>  <mol_properties>  (5) 
{"1": {"label": "*0", "atom_type": "Cs"}, "2": {"label": "*1", "atom_type": "O2s"}, "8": {"label": "*2", "atom_type": "H0"}, "9": {"label": "*3", "atom_type": "Cs"}, "10": {"label": "*4", "atom_type": "H0"}}

>  <type>  (5) 
unop_1

>  <geom_source>  (5) 
Heuristics

$$$$

     RDKit          3D

 13 11  0  0  0  0  0  0  0  0999 V2000
    0.5121   -0.9718   -1.2249 C   0  0  0  0  0  0  0  0  0  0  0  0
    0.5121   -0.9718    0.2926 C   0  0  0  0  0  0  0  0  0  0  0  0
    0.5121    0.3314    0.8419 O   0  0  0  0  0  0  0  0  0  0  0  0
    1.3681   -0.4142   -1.6072 H   0  0  0  0  0  0  0  0  0  0  0  0
    0.5605   -1.9924   -1.6102 H   0  0  0  0  0  0  0  0  0  0  0  0
   -0.3993   -0.5116   -1.6161 H   0  0  0  0  0  0  0  0  0  0  0  0
    1.4186   -1.4475    0.6694 H   0  0  0  0  0  0  0  0  0  0  0  0
   -0.3401   -1.5515    0.6699 H   0  0  0  0  0  0  0  0  0  0  0  0
   -0.4262    0.8834    0.4710 H   0  0  0  0  0  0  0  0  0  0  0  0
   -1.4924    1.5106    0.0496 C   0  0  0  0  0  3  0  0  0  0  0  0
   -2.2927    0.7920   -0.1205 H   0  0  0  0  0  0  0  0  0  0  0  0
   -1.3103    1.9612    1.0241 H   0  0  0  0  0  0  0  0  0  0  0  0
   -1.1310    2.1772   -0.7319 H   0  0  0  0  0  0  0  0  0  0  0  0
  1  2  1  0
  1  4  1  0
  1  5  1  0
  1  6  1  0
  2  3  1  0
  2  7  1  0
  2  8  1  0
  3  9  1  0
 10 11  1  0
 10 12  1  0
 10 13  1  0
M  RAD  1  10   2
M  END
>  <reaction>  (6) 
rxn_233

>  <mol_properties>  (6) 
{"1": {"label": "*0", "atom_type": "Cs"}, "2": {"label": "*1", "atom_type": "O2s"}, "8": {"label": "*2", "atom_type": "H0"}, "9": {"label": "*3", "atom_type": "Cs"}, "10": {"label": "*4", "atom_type": "H0"}}

>  <type>  (6) 
unop_2

>  <geom_source>  (6) 
Heuristics

$$$$

     RDKit          3D

 13 11  0  0  0  0  0  0  0  0999 V2000
    0.5208   -0.9876   -1.2208 C   0  0  0  0  0  0  0  0  0  0  0  0
    0.5208   -0.9876    0.2967 C   0  0  0  0  0  0  0  0  0  0  0  0
    0.5208    0.3155    0.8460 O   0  0  0  0  0  0  0  0  0  0  0  0
    1.3769   -0.4301   -1.6031 H   0  0  0  0  0  0  0  0  0  0  0  0
    0.5693   -2.0082   -1.6060 H   0  0  0  0  0  0  0  0  0  0  0  0
   -0.3906   -0.5275   -1.6120 H   0  0  0  0  0  0  0  0  0  0  0  0
    1.4273   -1.4633    0.6736 H   0  0  0  0  0  0  0  0  0  0  0  0
   -0.3313   -1.5674    0.6740 H   0  0  0  0  0  0  0  0  0  0  0  0
   -0.4175    0.8675    0.4751 H   0  0  0  0  0  0  0  0  0  0  0  0
   -1.4836    1.4947    0.0537 C   0  0  0  0  0  3  0  0  0  0  0  0
   -1.7990    2.2186    0.8036 H   0  0  0  0  0  0  0  0  0  0  0  0
   -0.9480    2.2441   -0.5271 H   0  0  0  0  0  0  0  0  0  0  0  0
   -2.4914    1.3804   -0.3425 H   0  0  0  0  0  0  0  0  0  0  0  0
  1  2  1  0
  1  4  1  0
  1  5  1  0
  1  6  1  0
  2  3  1  0
  2  7  1  0
  2  8  1  0
  3  9  1  0
 10 11  1  0
 10 12  1  0
 10 13  1  0
M  RAD  1  10   2
M  END
>  <reaction>  (7) 
rxn_233

>  <mol_properties>  (7) 
{"1": {"label": "*0", "atom_type": "Cs"}, "2": {"label": "*1", "atom_type": "O2s"}, "8": {"label": "*2", "atom_type": "H0"}, "9": {"label": "*3", "atom_type": "Cs"}, "10": {"label": "*4", "atom_type": "H0"}}

>  <type>  (7) 
unop_3

>  <geom_source>  (7) 
Heuristics

$$$$

     RDKit          3D

 13 11  0  0  0  0  0  0  0  0999 V2000
    0.5134   -0.9754   -1.2242 C   0  0  0  0  0  0  0  0  0  0  0  0
    0.5134   -0.9754    0.2933 C   0  0  0  0  0  0  0  0  0  0  0  0
    0.5134    0.3278    0.8426 O   0  0  0  0  0  0  0  0  0  0  0  0
    1.3695   -0.4179   -1.6065 H   0  0  0  0  0  0  0  0  0  0  0  0
    0.5619   -1.9960   -1.6094 H   0  0  0  0  0  0  0  0  0  0  0  0
   -0.3980   -0.5152   -1.6154 H   0  0  0  0  0  0  0  0  0  0  0  0
    1.4199   -1.4511    0.6702 H   0  0  0  0  0  0  0  0  0  0  0  0
   -0.3388   -1.5551    0.6706 H   0  0  0  0  0  0  0  0  0  0  0  0
   -0.4249    0.8798    0.4717 H   0  0  0  0  0  0  0  0  0  0  0  0
   -1.4910    1.5069    0.0503 C   0  0  0  0  0  3  0  0  0  0  0  0
   -1.4738    1.5618   -1.0371 H   0  0  0  0  0  0  0  0  0  0  0  0
   -2.4477    1.3612    0.5497 H   0  0  0  0  0  0  0  0  0  0  0  0
   -0.8899    2.2160    0.6175 H   0  0  0  0  0  0  0  0  0  0  0  0
  1  2  1  0
  1  4  1  0
  1  5  1  0
  1  6  1  0
  2  3  1  0
  2  7  1  0
  2  8  1  0
  3  9  1  0
 10 11  1  0
 10 12  1  0
 10 13  1  0
M  RAD  1  10   2
M  END
>  <reaction>  (8) 
rxn_233

>  <mol_properties>  (8) 
{"1": {"label": "*0", "atom_type": "Cs"}, "2": {"label": "*1", "atom_type": "O2s"}, "8": {"label": "*2", "atom_type": "H0"}, "9": {"label": "*3", "atom_type": "Cs"}, "10": {"label": "*4", "atom_type": "H0"}}

>  <type>  (8) 
unop_4

>  <geom_source>  (8) 
Heuristics

$$$$

     RDKit          3D

 13 11  0  0  0  0  0  0  0  0999 V2000
    0.5260   -0.9863   -1.2218 C   0  0  0  0  0  0  0  0  0  0  0  0
    0.5260   -0.9863    0.2957 C   0  0  0  0  0  0  0  0  0  0  0  0
    0.5260    0.3169    0.8450 O   0  0  0  0  0  0  0  0  0  0  0  0
    1.3820   -0.4288   -1.6041 H   0  0  0  0  0  0  0  0  0  0  0  0
    0.5744   -2.0069   -1.6070 H   0  0  0  0  0  0  0  0  0  0  0  0
   -0.3855   -0.5262   -1.6130 H   0  0  0  0  0  0  0  0  0  0  0  0
    1.4324   -1.4620    0.6726 H   0  0  0  0  0  0  0  0  0  0  0  0
   -0.3262   -1.5660    0.6730 H   0  0  0  0  0  0  0  0  0  0  0  0
   -0.4124    0.8689    0.4741 H   0  0  0  0  0  0  0  0  0  0  0  0
   -1.4785    1.4960    0.0527 C   0  0  0  0  0  3  0  0  0  0  0  0
   -1.4947    2.5030    0.4668 H   0  0  0  0  0  0  0  0  0  0  0  0
   -1.5659    1.9294   -0.9424 H   0  0  0  0  0  0  0  0  0  0  0  0
   -2.4725    1.3353    0.4672 H   0  0  0  0  0  0  0  0  0  0  0  0
  1  2  1  0
  1  4  1  0
  1  5  1  0
  1  6  1  0
  2  3  1  0
  2  7  1  0
  2  8  1  0
  3  9  1  0
 10 11  1  0
 10 12  1  0
 10 13  1  0
M  RAD  1  10   2
M  END
>  <reaction>  (9) 
rxn_233

>  <mol_properties>  (9) 
{"1": {"label": "*0", "atom_type": "Cs"}, "2": {"label": "*1", "atom_type": "O2s"}, "8": {"label": "*2", "atom_type": "H0"}, "9": {"label": "*3", "atom_type": "Cs"}, "10": {"label": "*4", "atom_type": "H0"}}

>  <type>  (9) 
unop_5

>  <geom_source>  (9) 
Heuristics

$$$$

     RDKit          3D

 13 11  0  0  0  0  0  0  0  0999 V2000
    0.5158   -0.9799   -1.2252 C   0  0  0  0  0  0  0  0  0  0  0  0
    0.5158   -0.9799    0.2923 C   0  0  0  0  0  0  0  0  0  0  0  0
    0.5158    0.3232    0.8417 O   0  0  0  0  0  0  0  0  0  0  0  0
    1.3718   -0.4224   -1.6075 H   0  0  0  0  0  0  0  0  0  0  0  0
    0.5642   -2.0005   -1.6104 H   0  0  0  0  0  0  0  0  0  0  0  0
   -0.3957   -0.5198   -1.6164 H   0  0  0  0  0  0  0  0  0  0  0  0
    1.4223   -1.4556    0.6692 H   0  0  0  0  0  0  0  0  0  0  0  0
   -0.3364   -1.5597    0.6696 H   0  0  0  0  0  0  0  0  0  0  0  0
   -0.4226    0.8752    0.4708 H   0  0  0  0  0  0  0  0  0  0  0  0
   -1.4887    1.5024    0.0494 C   0  0  0  0  0  3  0  0  0  0  0  0
   -1.2613    2.0197   -0.8815 H   0  0  0  0  0  0  0  0  0  0  0  0
   -2.5573    1.3212    0.1544 H   0  0  0  0  0  0  0  0  0  0  0  0
   -1.1283    2.0588    0.9132 H   0  0  0  0  0  0  0  0  0  0  0  0
  1  2  1  0
  1  4  1  0
  1  5  1  0
  1  6  1  0
  2  3  1  0
  2  7  1  0
  2  8  1  0
  3  9  1  0
 10 11  1  0
 10 12  1  0
 10 13  1  0
M  RAD  1  10   2
M  END
>  <reaction>  (10) 
rxn_233

>  <mol_properties>  (10) 
{"1": {"label": "*0", "atom_type": "Cs"}, "2": {"label": "*1", "atom_type": "O2s"}, "8": {"label": "*2", "atom_type": "H0"}, "9": {"label": "*3", "atom_type": "Cs"}, "10": {"label": "*4", "atom_type": "H0"}}

>  <type>  (10) 
unop_6

>  <geom_source>  (10) 
Heuristics

$$$$

     RDKit          3D

 13 11  0  0  0  0  0  0  0  0999 V2000
    0.5197   -0.9836   -1.2271 C   0  0  0  0  0  0  0  0  0  0  0  0
    0.5197   -0.9836    0.2904 C   0  0  0  0  0  0  0  0  0  0  0  0
    0.5197    0.3196    0.8397 O   0  0  0  0  0  0  0  0  0  0  0  0
    1.3757   -0.4260   -1.6094 H   0  0  0  0  0  0  0  0  0  0  0  0
    0.5681   -2.0042   -1.6123 H   0  0  0  0  0  0  0  0  0  0  0  0
   -0.3918   -0.5234   -1.6183 H   0  0  0  0  0  0  0  0  0  0  0  0
    1.4261   -1.4593    0.6673 H   0  0  0  0  0  0  0  0  0  0  0  0
   -0.3325   -1.5633    0.6677 H   0  0  0  0  0  0  0  0  0  0  0  0
   -0.4187    0.8716    0.4689 H   0  0  0  0  0  0  0  0  0  0  0  0
   -1.4848    1.4988    0.0475 C   0  0  0  0  0  3  0  0  0  0  0  0
   -1.1876    2.3865   -0.5088 H   0  0  0  0  0  0  0  0  0  0  0  0
   -2.5177    1.3654   -0.2704 H   0  0  0  0  0  0  0  0  0  0  0  0
   -1.4647    1.8565    1.0758 H   0  0  0  0  0  0  0  0  0  0  0  0
  1  2  1  0
  1  4  1  0
  1  5  1  0
  1  6  1  0
  2  3  1  0
  2  7  1  0
  2  8  1  0
  3  9  1  0
 10 11  1  0
 10 12  1  0
 10 13  1  0
M  RAD  1  10   2
M  END
>  <reaction>  (11) 
rxn_233

>  <mol_properties>  (11) 
{"1": {"label": "*0", "atom_type": "Cs"}, "2": {"label": "*1", "atom_type": "O2s"}, "8": {"label": "*2", "atom_type": "H0"}, "9": {"label": "*3", "atom_type": "Cs"}, "10": {"label": "*4", "atom_type": "H0"}}

>  <type>  (11) 
unop_7

>  <geom_source>  (11) 
Heuristics

$$$$

     RDKit          3D

 13 11  0  0  0  0  0  0  0  0999 V2000
    0.5162   -0.9797   -1.2258 C   0  0  0  0  0  0  0  0  0  0  0  0
    0.5162   -0.9797    0.2917 C   0  0  0  0  0  0  0  0  0  0  0  0
    0.5162    0.3235    0.8411 O   0  0  0  0  0  0  0  0  0  0  0  0
    1.3722   -0.4221   -1.6081 H   0  0  0  0  0  0  0  0  0  0  0  0
    0.5646   -2.0003   -1.6110 H   0  0  0  0  0  0  0  0  0  0  0  0
   -0.3953   -0.5195   -1.6170 H   0  0  0  0  0  0  0  0  0  0  0  0
    1.4226   -1.4554    0.6686 H   0  0  0  0  0  0  0  0  0  0  0  0
   -0.3360   -1.5594    0.6690 H   0  0  0  0  0  0  0  0  0  0  0  0
   -0.4222    0.8755    0.4702 H   0  0  0  0  0  0  0  0  0  0  0  0
   -1.4883    1.5027    0.0488 C   0  0  0  0  0  3  0  0  0  0  0  0
   -2.3079    1.3338    0.7455 H   0  0  0  0  0  0  0  0  0  0  0  0
   -0.8065    2.2697    0.4131 H   0  0  0  0  0  0  0  0  0  0  0  0
   -1.8546    1.7816   -0.9380 H   0  0  0  0  0  0  0  0  0  0  0  0
  1  2  1  0
  1  4  1  0
  1  5  1  0
  1  6  1  0
  2  3  1  0
  2  7  1  0
  2  8  1  0
  3  9  1  0
 10 11  1  0
 10 12  1  0
 10 13  1  0
M  RAD  1  10   2
M  END
>  <reaction>  (12) 
rxn_233

>  <mol_properties>  (12) 
{"1": {"label": "*0", "atom_type": "Cs"}, "2": {"label": "*1", "atom_type": "O2s"}, "8": {"label": "*2", "atom_type": "H0"}, "9": {"label": "*3", "atom_type": "Cs"}, "10": {"label": "*4", "atom_type": "H0"}}

>  <type>  (12) 
unop_8

>  <geom_source>  (12) 
Heuristics

$$$$

     RDKit          3D

 13 11  0  0  0  0  0  0  0  0999 V2000
    0.5118   -0.9720   -1.2245 C   0  0  0  0  0  0  0  0  0  0  0  0
    0.5118   -0.9720    0.2930 C   0  0  0  0  0  0  0  0  0  0  0  0
    0.5118    0.3312    0.8423 O   0  0  0  0  0  0  0  0  0  0  0  0
    1.3679   -0.4144   -1.6068 H   0  0  0  0  0  0  0  0  0  0  0  0
    0.5603   -1.9926   -1.6098 H   0  0  0  0  0  0  0  0  0  0  0  0
   -0.3996   -0.5118   -1.6157 H   0  0  0  0  0  0  0  0  0  0  0  0
    1.4183   -1.4477    0.6698 H   0  0  0  0  0  0  0  0  0  0  0  0
   -0.3404   -1.5517    0.6703 H   0  0  0  0  0  0  0  0  0  0  0  0
   -0.4265    0.8832    0.4714 H   0  0  0  0  0  0  0  0  0  0  0  0
   -1.4926    1.5104    0.0500 C   0  0  0  0  0  3  0  0  0  0  0  0
   -1.7695    1.1349   -0.9339 H   0  0  0  0  0  0  0  0  0  0  0  0
   -2.1781    1.4911    0.8959 H   0  0  0  0  0  0  0  0  0  0  0  0
   -0.7711    2.3146    0.1858 H   0  0  0  0  0  0  0  0  0  0  0  0
  1  2  1  0
  1  4  1  0
  1  5  1  0
  1  6  1  0
  2  3  1  0
  2  7  1  0
  2  8  1  0
  3  9  1  0
 10 11  1  0
 10 12  1  0
 10 13  1  0
M  RAD  1  10   2
M  END
>  <reaction>  (13) 
rxn_233

>  <mol_properties>  (13) 
{"1": {"label": "*0", "atom_type": "Cs"}, "2": {"label": "*1", "atom_type": "O2s"}, "8": {"label": "*2", "atom_type": "H0"}, "9": {"label": "*3", "atom_type": "Cs"}, "10": {"label": "*4", "atom_type": "H0"}}

>  <type>  (13) 
unop_9

>  <geom_source>  (13) 
Heuristics

$$$$

     RDKit          3D

 13 11  0  0  0  0  0  0  0  0999 V2000
    0.5143   -0.9749   -1.2255 C   0  0  0  0  0  0  0  0  0  0  0  0
    0.5143   -0.9749    0.2920 C   0  0  0  0  0  0  0  0  0  0  0  0
    0.5143    0.3283    0.8413 O   0  0  0  0  0  0  0  0  0  0  0  0
    1.3703   -0.4173   -1.6079 H   0  0  0  0  0  0  0  0  0  0  0  0
    0.5627   -1.9954   -1.6108 H   0  0  0  0  0  0  0  0  0  0  0  0
   -0.3972   -0.5147   -1.6167 H   0  0  0  0  0  0  0  0  0  0  0  0
    1.4208   -1.4506    0.6688 H   0  0  0  0  0  0  0  0  0  0  0  0
   -0.3379   -1.5546    0.6693 H   0  0  0  0  0  0  0  0  0  0  0  0
   -0.4241    0.8803    0.4704 H   0  0  0  0  0  0  0  0  0  0  0  0
   -1.4902    1.5075    0.0490 C   0  0  0  0  0  3  0  0  0  0  0  0
   -2.3796    0.9682    0.3712 H   0  0  0  0  0  0  0  0  0  0  0  0
   -0.9847    2.1538    0.7650 H   0  0  0  0  0  0  0  0  0  0  0  0
   -1.4961    1.9848   -0.9297 H   0  0  0  0  0  0  0  0  0  0  0  0
  1  2  1  0
  1  4  1  0
  1  5  1  0
  1  6  1  0
  2  3  1  0
  2  7  1  0
  2  8  1  0
  3  9  1  0
 10 11  1  0
 10 12  1  0
 10 13  1  0
M  RAD  1  10   2
M  END
>  <reaction>  (14) 
rxn_233

>  <mol_properties>  (14) 
{"1": {"label": "*0", "atom_type": "Cs"}, "2": {"label": "*1", "atom_type": "O2s"}, "8": {"label": "*2", "atom_type": "H0"}, "9": {"label": "*3", "atom_type": "Cs"}, "10": {"label": "*4", "atom_type": "H0"}}

>  <type>  (14) 
unop_10

>  <geom_source>  (14) 
Heuristics

$$$$

     RDKit          3D

 13 11  0  0  0  0  0  0  0  0999 V2000
    0.5248   -0.9851   -1.2269 C   0  0  0  0  0  0  0  0  0  0  0  0
    0.5248   -0.9851    0.2906 C   0  0  0  0  0  0  0  0  0  0  0  0
    0.5248    0.3181    0.8399 O   0  0  0  0  0  0  0  0  0  0  0  0
    1.3808   -0.4275   -1.6092 H   0  0  0  0  0  0  0  0  0  0  0  0
    0.5732   -2.0057   -1.6121 H   0  0  0  0  0  0  0  0  0  0  0  0
   -0.3867   -0.5249   -1.6181 H   0  0  0  0  0  0  0  0  0  0  0  0
    1.4312   -1.4608    0.6675 H   0  0  0  0  0  0  0  0  0  0  0  0
   -0.3274   -1.5648    0.6679 H   0  0  0  0  0  0  0  0  0  0  0  0
   -0.4136    0.8701    0.4691 H   0  0  0  0  0  0  0  0  0  0  0  0
   -1.4797    1.4973    0.0477 C   0  0  0  0  0  3  0  0  0  0  0  0
   -1.2716    2.5642   -0.0163 H   0  0  0  0  0  0  0  0  0  0  0  0
   -2.2448    1.5420   -0.7258 H   0  0  0  0  0  0  0  0  0  0  0  0
   -1.9475    1.5892    1.0267 H   0  0  0  0  0  0  0  0  0  0  0  0
  1  2  1  0
  1  4  1  0
  1  5  1  0
  1  6  1  0
  2  3  1  0
  2  7  1  0
  2  8  1  0
  3  9  1  0
 10 11  1  0
 10 12  1  0
 10 13  1  0
M  RAD  1  10   2
M  END
>  <reaction>  (15) 
rxn_233

>  <mol_properties>  (15) 
{"1": {"label": "*0", "atom_type": "Cs"}, "2": {"label": "*1", "atom_type": "O2s"}, "8": {"label": "*2", "atom_type": "H0"}, "9": {"label": "*3", "atom_type": "Cs"}, "10": {"label": "*4", "atom_type": "H0"}}

>  <type>  (15) 
unop_11

>  <geom_source>  (15) 
Heuristics

$$$$

     RDKit          3D

 13 11  0  0  0  0  0  0  0  0999 V2000
    0.5111   -0.9708   -1.2248 C   0  0  0  0  0  0  0  0  0  0  0  0
    0.5111   -0.9708    0.2927 C   0  0  0  0  0  0  0  0  0  0  0  0
    0.5111    0.3324    0.8420 O   0  0  0  0  0  0  0  0  0  0  0  0
    1.3671   -0.4132   -1.6072 H   0  0  0  0  0  0  0  0  0  0  0  0
    0.5595   -1.9914   -1.6101 H   0  0  0  0  0  0  0  0  0  0  0  0
   -0.4004   -0.5106   -1.6160 H   0  0  0  0  0  0  0  0  0  0  0  0
    1.4175   -1.4465    0.6695 H   0  0  0  0  0  0  0  0  0  0  0  0
   -0.3411   -1.5505    0.6700 H   0  0  0  0  0  0  0  0  0  0  0  0
   -0.4273    0.8844    0.4711 H   0  0  0  0  0  0  0  0  0  0  0  0
   -1.4934    1.5116    0.0497 C   0  0  0  0  0  3  0  0  0  0  0  0
   -2.0695    0.8530   -0.5985 H   0  0  0  0  0  0  0  0  0  0  0  0
   -1.7561    1.7127    1.0872 H   0  0  0  0  0  0  0  0  0  0  0  0
   -0.8494    2.3069   -0.3224 H   0  0  0  0  0  0  0  0  0  0  0  0
  1  2  1  0
  1  4  1  0
  1  5  1  0
  1  6  1  0
  2  3  1  0
  2  7  1  0
  2  8  1  0
  3  9  1  0
 10 11  1  0
 10 12  1  0
 10 13  1  0
M  RAD  1  10   2
M  END
>  <reaction>  (16) 
rxn_233

>  <mol_properties>  (16) 
{"1": {"label": "*0", "atom_type": "Cs"}, "2": {"label": "*1", "atom_type": "O2s"}, "8": {"label": "*2", "atom_type": "H0"}, "9": {"label": "*3", "atom_type": "Cs"}, "10": {"label": "*4", "atom_type": "H0"}}

>  <type>  (16) 
unop_12

>  <geom_source>  (16) 
Heuristics

$$$$

     RDKit          3D

 13 11  0  0  0  0  0  0  0  0999 V2000
    0.1397   -0.5437   -0.0270 O   0  0  0  0  0  1  0  0  0  0  0  0
   -1.0900   -0.2532   -0.6186 C   0  0  0  0  0  0  0  0  0  0  0  0
   -2.0447    0.3082    0.4234 C   0  0  0  0  0  0  0  0  0  0  0  0
    2.4842   -0.0345    0.1353 C   0  0  0  0  0  0  0  0  0  0  0  0
   -0.9397    0.4911   -1.4289 H   0  0  0  0  0  0  0  0  0  0  0  0
   -1.5149   -1.1817   -1.0547 H   0  0  0  0  0  0  0  0  0  0  0  0
   -1.6269    1.2405    0.8590 H   0  0  0  0  0  0  0  0  0  0  0  0
   -2.2029   -0.4348    1.2337 H   0  0  0  0  0  0  0  0  0  0  0  0
   -3.0223    0.5384   -0.0501 H   0  0  0  0  0  0  0  0  0  0  0  0
    2.8728   -0.8627   -0.4924 H   0  0  0  0  0  0  0  0  0  0  0  0
    2.9528    0.9202   -0.1807 H   0  0  0  0  0  0  0  0  0  0  0  0
    2.7277   -0.2315    1.1996 H   0  0  0  0  0  0  0  0  0  0  0  0
    1.2643    0.0437    0.0015 H   0  0  0  0  0  0  0  0  0  0  0  0
  1  2  1  0
  2  3  1  0
  2  5  1  0
  2  6  1  0
  3  7  1  0
  3  8  1  0
  3  9  1  0
  4 10  1  0
  4 11  1  0
  4 12  1  0
  4 13  1  0
M  RAD  1   1   2
M  END
>  <reaction>  (17) 
rxn_233

>  <mol_properties>  (17) 
{"1": {"label": "*0", "atom_type": "Cs"}, "2": {"label": "*1", "atom_type": "O2s"}, "8": {"label": "*2", "atom_type": "H0"}, "9": {"label": "*3", "atom_type": "Cs"}, "10": {"label": "*4", "atom_type": "H0"}}

>  <type>  (17) 
unop_13

>  <geom_source>  (17) 
AutoTST

$$$$
