
     RDKit          3D

  7  6  0  0  0  0  0  0  0  0999 V2000
   -0.8268    0.8084    0.1355 C   0  0  0  0  0  0  0  0  0  0  0  0
    0.4219    0.1364    0.2340 N   0  0  0  0  0  0  0  0  0  0  0  0
    0.4488   -0.9375   -0.3837 N   0  0  0  0  0  0  0  0  0  0  0  0
   -1.3868    0.5057    1.0191 H   0  0  0  0  0  0  0  0  0  0  0  0
   -0.7344    1.7430    0.2464 H   0  0  0  0  0  0  0  0  0  0  0  0
   -1.3618    0.5433   -0.5949 H   0  0  0  0  0  0  0  0  0  0  0  0
    1.3805   -1.3426   -0.2321 H   0  0  0  0  0  0  0  0  0  0  0  0
  1  2  1  0
  1  4  1  0
  1  5  1  0
  1  6  1  0
  2  3  2  3
  3  7  1  0
M  END
>  <reaction>  (1) 
rmg_rxn_15453

>  <type>  (1) 
r1h

>  <mol_properties>  (1) 
{"0": {"label": "donator", "atom_type": "Cs"}, "3": {"label": "d_hydrogen", "atom_type": "H0"}}

>  <electro_map>  (1) 
{"3": {"R": null, "A": null, "D": null}, "0": {"R": 0.8000000283122057, "A": null, "D": null}, "1": {"R": 1.4214332648950823, "A": 105.31200860691771, "D": null}, "2": {"R": 1.2391719081915744, "A": 112.81025235835874, "D": 263.62542622700624}, "6": {"R": 1.0272163921362911, "A": 106.73406014143048, "D": 181.04049934023394}, "4": {"R": 3.8807417876231587, "A": 36.86884544081929, "D": 349.6202550504615}, "5": {"R": 1.837747274356046, "A": 61.43242951335508, "D": 352.301783278893}}

$$$$

     RDKit          3D

  6  5  0  0  0  0  0  0  0  0999 V2000
   -0.7484    0.0479    0.8138 O   0  0  0  0  0  0  0  0  0  0  0  0
    0.0423    0.4008   -0.2820 N   0  0  0  0  0  0  0  0  0  0  0  0
    0.8324   -0.4724   -0.6607 C   0  0  0  0  0  0  0  0  0  0  0  0
   -1.2801    0.8350    0.9552 H   0  0  0  0  0  0  0  0  0  0  0  0
    0.9696   -1.2106   -0.3845 H   0  0  0  0  0  0  0  0  0  0  0  0
    1.4359   -0.1659   -1.5128 H   0  0  0  0  0  0  0  0  0  0  0  0
  1  2  1  0
  1  4  1  0
  2  3  2  3
  3  5  1  0
  3  6  1  0
M  END
>  <reaction>  (2) 
rmg_rxn_15453

>  <type>  (2) 
r2h

>  <mol_properties>  (2) 
{"2": {"label": "acceptor", "atom_type": "Cd"}, "5": {"label": "a_hydrogen", "atom_type": "H0"}}

>  <electro_map>  (2) 
{"5": {"R": null, "A": null, "D": null}, "2": {"R": 0.799999953806399, "A": null, "D": null}, "1": {"R": 1.2369818382903577, "A": 113.27396370212736, "D": null}, "0": {"R": 1.3966092567358868, "A": 140.3719106410898, "D": 0.30132139258897234}, "3": {"R": 0.9603476846433172, "A": 102.81959790054852, "D": 179.88533224429085}, "4": {"R": 3.4880677229405017, "A": 16.169835060578137, "D": 359.7862235934157}}

$$$$

     RDKit          3D

 12 10  0  0  0  0  0  0  0  0999 V2000
   -2.1767    0.4811    2.3598 O   0  0  0  0  0  0  0  0  0  0  0  0
   -1.3860    0.8341    1.2640 N   0  0  0  0  0  0  0  0  0  0  0  0
   -0.5959   -0.0392    0.8853 C   0  0  0  0  0  3  0  0  0  0  0  0
   -2.7084    1.2682    2.5012 H   0  0  0  0  0  0  0  0  0  0  0  0
   -0.4093   -1.0433    1.2611 H   0  0  0  0  0  0  0  0  0  0  0  0
    0.8510    0.7166   -1.2637 C   0  0  0  0  0  0  0  0  0  0  0  0
    2.0997    0.0446   -1.1653 N   0  0  0  0  0  0  0  0  0  0  0  0
    2.1266   -1.0293   -1.7830 N   0  0  0  0  0  0  0  0  0  0  0  0
    0.2108    0.3705   -0.2536 H   0  0  0  0  0  0  0  0  0  0  0  0
    0.9572    1.7906   -1.1364 H   0  0  0  0  0  0  0  0  0  0  0  0
    0.2321    0.4099   -2.1086 H   0  0  0  0  0  0  0  0  0  0  0  0
    3.0583   -1.4344   -1.6313 H   0  0  0  0  0  0  0  0  0  0  0  0
  1  2  1  0
  1  4  1  0
  2  3  2  3
  3  5  1  0
  6  7  1  0
  6  9  1  0
  6 10  1  0
  6 11  1  0
  7  8  2  3
  8 12  1  0
M  RAD  1   3   2
M  END
>  <reaction>  (3) 
rmg_rxn_15453

>  <type>  (3) 
ts

>  <mol_properties>  (3) 
{"1": {"label": "*4", "atom_type": "N3d"}, "2": {"label": "*3", "atom_type": "Cd"}, "5": {"label": "*1", "atom_type": "Cs"}, "6": {"label": "*0", "atom_type": "N3d"}, "8": {"label": "*2", "atom_type": "H0"}}

$$$$
