
     RDKit          3D

  5  4  0  0  0  0  0  0  0  0999 V2000
    0.0289   -0.0927    0.6073 C   0  0  0  0  0  0  0  0  0  0  0  0
   -0.0264    0.0188   -0.6325 N   0  0  0  0  0  0  0  0  0  0  0  0
    0.0158    0.7668    1.2844 H   0  0  0  0  0  0  0  0  0  0  0  0
    0.0769   -0.8084    0.9616 H   0  0  0  0  0  0  0  0  0  0  0  0
   -0.0847    0.9889   -0.9442 H   0  0  0  0  0  0  0  0  0  0  0  0
  1  2  2  3
  1  3  1  0
  1  4  1  0
  2  5  1  0
M  END
>  <reaction>  (1) 
rxn_675

>  <type>  (1) 
r1h

>  <mol_properties>  (1) 
{"0": {"label": "donator", "atom_type": "Cd"}, "2": {"label": "d_hydrogen", "atom_type": "H0"}}

>  <electro_map>  (1) 
{"2": {"R": null, "A": null, "D": null}, "0": {"R": 0.8000000283122057, "A": null, "D": null}, "1": {"R": 1.2460078386210214, "A": 123.00819167094669, "D": null}, "4": {"R": 1.0205590924242265, "A": 91.3041051676061, "D": 179.99992131837746}, "3": {"R": 2.902332249409415, "A": 26.79619590504405, "D": 359.9999979086902}}

$$$$

     RDKit          3D

  5  4  0  0  0  0  0  0  0  0999 V2000
    0.0169   -0.8658   -0.5901 H   0  0  0  0  0  0  0  0  0  0  0  0
   -0.0006    0.0311    0.0218 C   0  0  0  0  0  0  0  0  0  0  0  0
   -0.0619    0.7691   -0.6359 H   0  0  0  0  0  0  0  0  0  0  0  0
    0.8538    0.0077    0.5226 H   0  0  0  0  0  0  0  0  0  0  0  0
   -0.8059   -0.0704    0.5897 H   0  0  0  0  0  0  0  0  0  0  0  0
  1  2  1  0
  2  3  1  0
  2  4  1  0
  2  5  1  0
M  END
>  <reaction>  (2) 
rxn_675

>  <type>  (2) 
r2h

>  <mol_properties>  (2) 
{"0": {"label": "a_hydrogen", "atom_type": "H0"}, "1": {"label": "acceptor", "atom_type": "Cs"}}

>  <electro_map>  (2) 
{"0": {"R": null, "A": null, "D": null}, "1": {"R": 0.799999953806399, "A": null, "D": null}, "2": {"R": 1.086219366802757, "A": 104.02742847745657, "D": null}, "3": {"R": 1.821486000683685, "A": 52.72224291145155, "D": 38.956378414464126}, "4": {"R": 1.822521980791491, "A": 59.981174793952206, "D": 332.859660700413}}

$$$$

     RDKit          3D

  9  7  0  0  0  0  0  0  0  0999 V2000
    0.0497   -0.8406   -0.1586 C   0  0  0  0  0  0  0  0  0  0  0  0
   -0.0057   -0.7291   -1.3984 N   0  0  0  0  0  0  0  0  0  0  0  0
    0.0342    0.1767    0.6426 H   0  0  0  0  0  0  0  0  0  0  0  0
    0.1153   -1.8195    0.3260 H   0  0  0  0  0  0  0  0  0  0  0  0
   -0.0639    0.2410   -1.7101 H   0  0  0  0  0  0  0  0  0  0  0  0
    0.0114    1.3438    1.4388 C   0  0  0  0  0  3  0  0  0  0  0  0
   -0.0558    2.1532    0.7175 H   0  0  0  0  0  0  0  0  0  0  0  0
    0.9478    1.3183    1.9877 H   0  0  0  0  0  0  0  0  0  0  0  0
   -0.8712    1.2326    2.0612 H   0  0  0  0  0  0  0  0  0  0  0  0
  1  2  2  3
  1  3  1  0
  1  4  1  0
  2  5  1  0
  6  7  1  0
  6  8  1  0
  6  9  1  0
M  RAD  1   6   2
M  END
>  <reaction>  (3) 
rxn_675

>  <type>  (3) 
ts

>  <mol_properties>  (3) 
{"0": {"label": "*1", "atom_type": "Cd"}, "1": {"label": "*0", "atom_type": "N3d"}, "2": {"label": "*2", "atom_type": "H0"}, "5": {"label": "*3", "atom_type": "Cs"}, "6": {"label": "*4", "atom_type": "H0"}}

$$$$
