
     RDKit          3D

  5  4  0  0  0  0  0  0  0  0999 V2000
    0.0049   -0.0310   -0.0107 C   0  0  0  0  0  0  0  0  0  0  0  0
   -0.1571    0.9835    0.3420 H   0  0  0  0  0  0  0  0  0  0  0  0
   -0.2745   -0.0191   -0.9612 H   0  0  0  0  0  0  0  0  0  0  0  0
    0.9742   -0.1936    0.1143 H   0  0  0  0  0  0  0  0  0  0  0  0
   -0.5695   -0.5978    0.5643 H   0  0  0  0  0  0  0  0  0  0  0  0
  1  2  1  0
  1  3  1  0
  1  4  1  0
  1  5  1  0
M  END
>  <reaction>  (1) 
rxn_314

>  <type>  (1) 
r1h

>  <mol_properties>  (1) 
{"0": {"label": "donator", "atom_type": "Cs"}, "1": {"label": "d_hydrogen", "atom_type": "H0"}}

>  <electro_map>  (1) 
{"1": {"R": null, "A": null, "D": null}, "0": {"R": 0.7999999910593032, "A": null, "D": null}, "2": {"R": 1.0862342374160607, "A": 104.96591178740992, "D": null}, "3": {"R": 1.8168891510938885, "A": 52.905955779064804, "D": 321.12859025043053}, "4": {"R": 1.817509732331844, "A": 60.0112475310926, "D": 28.143863619940113}}

$$$$

     RDKit          3D

  8  7  0  0  0  0  0  0  0  0999 V2000
    0.4393    0.4315   -0.4401 C   0  0  0  0  0  0  0  0  0  0  0  0
   -0.4437   -0.4041    0.4496 C   0  0  0  0  0  0  0  0  0  0  0  0
    0.3721    1.4945   -0.1895 H   0  0  0  0  0  0  0  0  0  0  0  0
    0.1575    0.3246   -1.4894 H   0  0  0  0  0  0  0  0  0  0  0  0
    1.4868    0.1388   -0.3446 H   0  0  0  0  0  0  0  0  0  0  0  0
   -1.3691   -0.2446    0.3488 H   0  0  0  0  0  0  0  0  0  0  0  0
   -0.1945   -0.4088    1.3606 H   0  0  0  0  0  0  0  0  0  0  0  0
   -0.3223   -1.4412    0.1403 H   0  0  0  0  0  0  0  0  0  0  0  0
  1  2  1  0
  1  3  1  0
  1  4  1  0
  1  5  1  0
  2  6  1  0
  2  7  1  0
  2  8  1  0
M  END
>  <reaction>  (2) 
rxn_314

>  <type>  (2) 
r2h

>  <mol_properties>  (2) 
{"1": {"label": "acceptor", "atom_type": "Cs"}, "7": {"label": "a_hydrogen", "atom_type": "H0"}}

>  <electro_map>  (2) 
{"7": {"R": null, "A": null, "D": null}, "1": {"R": 0.7999999910593032, "A": null, "D": null}, "0": {"R": 1.5065200880086964, "A": 107.16466757559712, "D": null}, "2": {"R": 1.0941462207829507, "A": 135.25123553576265, "D": 0.00015286601962685348}, "3": {"R": 1.7619259325495982, "A": 36.24459583557101, "D": 237.86245084309155}, "4": {"R": 1.7641838065810234, "A": 59.95762536258976, "D": 322.0836541736675}, "5": {"R": 3.094156874286647, "A": 54.861111716946084, "D": 68.90780467711649}, "6": {"R": 1.7975634375613827, "A": 54.861111716946084, "D": 180.00014008393708}}

$$$$

     RDKit          3D

 12 10  0  0  0  0  0  0  0  0999 V2000
    0.4557    1.4252   -0.3122 C   0  0  0  0  0  0  0  0  0  0  0  0
   -0.4273    0.5896    0.5775 C   0  0  0  0  0  0  0  0  0  0  0  0
    0.3885    2.4882   -0.0617 H   0  0  0  0  0  0  0  0  0  0  0  0
    0.1739    1.3183   -1.3616 H   0  0  0  0  0  0  0  0  0  0  0  0
    1.5032    1.1325   -0.2167 H   0  0  0  0  0  0  0  0  0  0  0  0
   -1.4943    0.7735    0.4613 H   0  0  0  0  0  0  0  0  0  0  0  0
   -0.1399    0.5842    1.6278 H   0  0  0  0  0  0  0  0  0  0  0  0
   -0.0765   -1.9413   -0.2406 C   0  0  0  0  0  3  0  0  0  0  0  0
   -0.2808   -0.6617    0.2043 H   0  0  0  0  0  0  0  0  0  0  0  0
   -0.3828   -1.9282   -1.2827 H   0  0  0  0  0  0  0  0  0  0  0  0
    0.9863   -2.1196   -0.1036 H   0  0  0  0  0  0  0  0  0  0  0  0
   -0.7061   -2.5625    0.3896 H   0  0  0  0  0  0  0  0  0  0  0  0
  1  2  1  0
  1  3  1  0
  1  4  1  0
  1  5  1  0
  2  6  1  0
  2  7  1  0
  2  9  1  0
  8 10  1  0
  8 11  1  0
  8 12  1  0
M  RAD  1   8   2
M  END
>  <reaction>  (3) 
rxn_314

>  <type>  (3) 
ts

>  <mol_properties>  (3) 
{"0": {"label": "*0", "atom_type": "Cs"}, "1": {"label": "*1", "atom_type": "Cs"}, "7": {"label": "*3", "atom_type": "Cs"}, "8": {"label": "*2", "atom_type": "H0"}, "9": {"label": "*4", "atom_type": "H0"}}

$$$$
