
     RDKit          3D

  5  4  0  0  0  0  0  0  0  0999 V2000
   -0.0192    0.0027    0.0062 C   0  0  0  0  0  0  0  0  0  0  0  0
   -0.2678    0.8628   -0.4187 H   0  0  0  0  0  0  0  0  0  0  0  0
   -0.4869   -0.7763   -0.3896 H   0  0  0  0  0  0  0  0  0  0  0  0
   -0.0931    0.0301    0.9941 H   0  0  0  0  0  0  0  0  0  0  0  0
    1.0278   -0.1418   -0.2456 H   0  0  0  0  0  0  0  0  0  0  0  0
  1  2  1  0
  1  3  1  0
  1  4  1  0
  1  5  1  0
M  END
>  <reaction>  (1) 
rxn_188

>  <type>  (1) 
r1h

>  <mol_properties>  (1) 
{"0": {"label": "donator", "atom_type": "Cs"}, "4": {"label": "d_hydrogen", "atom_type": "H0"}}

>  <electro_map>  (1) 
{"4": {"R": null, "A": null, "D": null}, "0": {"R": 0.799999953806399, "A": null, "D": null}, "1": {"R": 1.0865600228685959, "A": 104.94041391355051, "D": null}, "2": {"R": 1.8133024872699413, "A": 52.991233857645454, "D": 320.8504154440836}, "3": {"R": 1.8081150945767268, "A": 59.905240983100775, "D": 29.831835173253477}}

$$$$

     RDKit          3D

  3  2  0  0  0  0  0  0  0  0999 V2000
    0.0597   -0.0091   -0.0580 O   0  0  0  0  0  0  0  0  0  0  0  0
   -0.8958    0.1199    0.0136 H   0  0  0  0  0  0  0  0  0  0  0  0
    0.2453   -0.0194    0.7201 H   0  0  0  0  0  0  0  0  0  0  0  0
  1  2  1  0
  1  3  1  0
M  END
>  <reaction>  (2) 
rxn_188

>  <type>  (2) 
r2h

>  <mol_properties>  (2) 
{"0": {"label": "acceptor", "atom_type": "O2s"}, "1": {"label": "a_hydrogen", "atom_type": "H0"}}

>  <electro_map>  (2) 
{"1": {"R": null, "A": null, "D": null}, "0": {"R": 0.799999953806399, "A": null, "D": null}, "2": {"R": 0.9668569526886761, "A": 99.14459963361186, "D": null}}

$$$$

     RDKit          3D

  7  5  0  0  0  0  0  0  0  0999 V2000
    1.6838   -0.2321   -0.3906 O   0  0  0  0  0  1  0  0  0  0  0  0
   -0.7793    0.1038   -0.0122 C   0  0  0  0  0  0  0  0  0  0  0  0
   -1.0519    1.0469   -0.4780 H   0  0  0  0  0  0  0  0  0  0  0  0
   -1.2921   -0.7501   -0.4461 H   0  0  0  0  0  0  0  0  0  0  0  0
   -0.8604    0.1339    1.0709 H   0  0  0  0  0  0  0  0  0  0  0  0
    0.3920   -0.0578   -0.2939 H   0  0  0  0  0  0  0  0  0  0  0  0
    1.9080   -0.2447    0.5498 H   0  0  0  0  0  0  0  0  0  0  0  0
  1  7  1  0
  2  3  1  0
  2  4  1  0
  2  5  1  0
  2  6  1  0
M  RAD  1   1   2
M  END
>  <reaction>  (3) 
rxn_188

>  <type>  (3) 
ts

>  <mol_properties>  (3) 
{"0": {"label": "*3", "atom_type": "O2s"}, "1": {"label": "*1", "atom_type": "Cs"}, "2": {"label": "*0", "atom_type": "H0"}, "5": {"label": "*2", "atom_type": "H0"}, "6": {"label": "*4", "atom_type": "H0"}}

$$$$
