
     RDKit          3D

  3  2  0  0  0  0  0  0  0  0999 V2000
   -0.0404   -0.0614    0.0105 O   0  0  0  0  0  0  0  0  0  0  0  0
   -0.1826    0.8811    0.1677 H   0  0  0  0  0  0  0  0  0  0  0  0
    0.8500   -0.0802   -0.3637 H   0  0  0  0  0  0  0  0  0  0  0  0
  1  2  1  0
  1  3  1  0
M  END
>  <reaction>  (1) 
kfir_rxn_9205

>  <type>  (1) 
r1h

>  <mol_properties>  (1) 
{"0": {"label": "donator", "atom_type": "O2s"}, "1": {"label": "d_hydrogen", "atom_type": "H0"}}

>  <electro_map>  (1) 
{"1": {"R": null, "A": null, "D": null}, "0": {"R": 0.9660659801595435, "A": null, "D": null}, "2": {"R": 0.9660659801595435, "A": 102.57655856649522, "D": null}}

$$$$

     RDKit          3D

  8  8  0  0  0  0  0  0  0  0999 V2000
    0.0371   -0.7388    0.7867 N   0  0  0  0  0  0  0  0  0  0  0  0
   -0.1937   -1.0250   -0.5022 C   0  0  0  0  0  0  0  0  0  0  0  0
   -0.1416    0.1735   -1.1527 C   0  0  0  0  0  0  0  0  0  0  0  0
    0.0943    1.1254   -0.2140 N   0  0  0  0  0  0  0  0  0  0  0  0
    0.2015    0.5743    0.9536 N   0  0  0  0  0  0  0  0  0  0  0  0
    0.0661   -1.3601    1.5762 H   0  0  0  0  0  0  0  0  0  0  0  0
   -0.2665    0.4080   -2.1942 H   0  0  0  0  0  0  0  0  0  0  0  0
   -0.3928   -2.0486   -0.8195 H   0  0  0  0  0  0  0  0  0  0  0  0
  1  2  1  0
  1  5  1  0
  1  6  1  0
  2  3  2  0
  2  8  1  0
  3  4  1  0
  3  7  1  0
  4  5  2  0
M  END
>  <reaction>  (2) 
kfir_rxn_9205

>  <type>  (2) 
r2h

>  <mol_properties>  (2) 
{"1": {"label": "acceptor", "atom_type": "Cd"}, "7": {"label": "a_hydrogen", "atom_type": "H0"}}

>  <electro_map>  (2) 
{"7": {"R": null, "A": null, "D": null}, "1": {"R": 1.089999936305053, "A": null, "D": null}, "2": {"R": 1.3645949278283092, "A": 133.86933971769983, "D": null}, "3": {"R": 1.3575734883995543, "A": 127.34255231957405, "D": 356.7205555178865}, "4": {"R": 1.2956059232817239, "A": 109.83032525823431, "D": 0.6991492995589179}, "0": {"R": 1.3337616182945624, "A": 107.2030550024338, "D": 0.010661750184920176}, "5": {"R": 1.005157166333391, "A": 120.44193531489789, "D": 181.09978108309787}, "6": {"R": 4.177717254303979, "A": 13.378795766761634, "D": 176.3252069068451}}

$$$$

     RDKit          3D

 10  9  0  0  0  0  0  0  0  0999 V2000
    0.0648   -0.0815    0.9670 N   0  0  0  0  0  0  0  0  0  0  0  0
   -0.1660   -0.3678   -0.3219 C   0  0  0  0  0  3  0  0  0  0  0  0
   -0.1139    0.8307   -0.9724 C   0  0  0  0  0  0  0  0  0  0  0  0
    0.1220    1.7826   -0.0337 N   0  0  0  0  0  0  0  0  0  0  0  0
    0.2292    1.2315    1.1340 N   0  0  0  0  0  0  0  0  0  0  0  0
    0.0938   -0.7029    1.7565 H   0  0  0  0  0  0  0  0  0  0  0  0
   -0.2388    1.0652   -2.0139 H   0  0  0  0  0  0  0  0  0  0  0  0
   -0.2377   -2.7191   -0.8909 O   0  0  0  0  0  0  0  0  0  0  0  0
   -0.4062   -1.6027   -0.7047 H   0  0  0  0  0  0  0  0  0  0  0  0
    0.6527   -2.7379   -1.2652 H   0  0  0  0  0  0  0  0  0  0  0  0
  1  2  1  0
  1  5  1  0
  1  6  1  0
  2  3  2  0
  3  4  1  0
  3  7  1  0
  4  5  2  0
  8  9  1  0
  8 10  1  0
M  RAD  1   2   2
M  END
>  <reaction>  (3) 
kfir_rxn_9205

>  <type>  (3) 
ts

>  <mol_properties>  (3) 
{"0": {"label": "*4", "atom_type": "N3s"}, "1": {"label": "*3", "atom_type": "Cd"}, "7": {"label": "*1", "atom_type": "O2s"}, "8": {"label": "*2", "atom_type": "H0"}, "9": {"label": "*0", "atom_type": "H0"}}

$$$$
