
     RDKit          3D

 10  9  0  0  0  0  0  0  0  0999 V2000
   -1.1076   -0.7761    1.4048 C   0  0  0  0  0  0  0  0  0  0  0  0
   -0.2357   -0.2872    0.5582 C   0  0  0  0  0  0  0  0  0  0  0  0
    0.6723    0.1739   -0.2218 C   0  0  0  0  0  0  0  0  0  0  0  0
    0.6120    0.8032   -1.5712 C   0  0  0  0  0  0  0  0  0  0  0  0
   -1.3988   -1.8192    1.3694 H   0  0  0  0  0  0  0  0  0  0  0  0
   -1.5726   -0.1483    2.1556 H   0  0  0  0  0  0  0  0  0  0  0  0
    1.6912    0.1018    0.1586 H   0  0  0  0  0  0  0  0  0  0  0  0
    1.2152    0.2364   -2.2843 H   0  0  0  0  0  0  0  0  0  0  0  0
    1.0193    1.8162   -1.5395 H   0  0  0  0  0  0  0  0  0  0  0  0
   -0.4120    0.8521   -1.9429 H   0  0  0  0  0  0  0  0  0  0  0  0
  1  2  2  0
  1  5  1  0
  1  6  1  0
  2  3  2  0
  3  4  1  0
  3  7  1  0
  4  8  1  0
  4  9  1  0
  4 10  1  0
M  END
>  <reaction>  (1) 
rmg_rxn_13982

>  <type>  (1) 
r1h

>  <mol_properties>  (1) 
{"2": {"label": "donator", "atom_type": "Cd"}, "6": {"label": "d_hydrogen", "atom_type": "H0"}}

>  <electro_map>  (1) 
{"6": {"R": null, "A": null, "D": null}, "2": {"R": 1.089999936305053, "A": null, "D": null}, "1": {"R": 1.2827098252423716, "A": 115.1991561435212, "D": null}, "0": {"R": 1.3099490762233006, "A": 147.1892772871052, "D": 179.9846305619121}, "3": {"R": 3.782589005395674, "A": 14.783061946489278, "D": 180.05775498954728}, "4": {"R": 4.423589259555622, "A": 12.260407822935376, "D": 99.13840262570609}, "5": {"R": 1.85480161217806, "A": 77.89654627137392, "D": 9.382019000262511}, "7": {"R": 5.256728265982362, "A": 70.01476742062681, "D": 356.9734055503309}, "8": {"R": 1.7574866777026352, "A": 69.43466806913547, "D": 179.10311046852033}, "9": {"R": 1.772285658731752, "A": 60.30168960538622, "D": 303.5877535532518}}

$$$$

     RDKit          3D

 12 11  0  0  0  0  0  0  0  0999 V2000
   -1.3734    0.4448   -0.0066 H   0  0  0  0  0  0  0  0  0  0  0  0
   -0.0442    1.4919    1.2972 C   0  0  0  0  0  0  0  0  0  0  0  0
   -0.3255    0.4428    0.2935 C   0  0  0  0  0  0  0  0  0  0  0  0
    0.4303   -0.4607   -0.2883 C   0  0  0  0  0  0  0  0  0  0  0  0
   -0.0183   -1.4764   -1.2944 C   0  0  0  0  0  0  0  0  0  0  0  0
   -0.6517    1.3468    2.1933 H   0  0  0  0  0  0  0  0  0  0  0  0
   -0.2775    2.4844    0.9047 H   0  0  0  0  0  0  0  0  0  0  0  0
    1.0105    1.4779    1.5906 H   0  0  0  0  0  0  0  0  0  0  0  0
    1.4894   -0.4876   -0.0185 H   0  0  0  0  0  0  0  0  0  0  0  0
    0.2131   -2.4874   -0.9509 H   0  0  0  0  0  0  0  0  0  0  0  0
   -1.0923   -1.4148   -1.4691 H   0  0  0  0  0  0  0  0  0  0  0  0
    0.4993   -1.3355   -2.2467 H   0  0  0  0  0  0  0  0  0  0  0  0
  1  3  1  0
  2  3  1  0
  2  6  1  0
  2  7  1  0
  2  8  1  0
  3  4  2  3
  4  5  1  0
  4  9  1  0
  5 10  1  0
  5 11  1  0
  5 12  1  0
M  END
>  <reaction>  (2) 
rmg_rxn_13982

>  <type>  (2) 
r2h

>  <mol_properties>  (2) 
{"0": {"label": "a_hydrogen", "atom_type": "H0"}, "2": {"label": "acceptor", "atom_type": "Cd"}}

>  <electro_map>  (2) 
{"0": {"R": null, "A": null, "D": null}, "2": {"R": 1.0899999909882152, "A": null, "D": null}, "3": {"R": 1.3138212637986697, "A": 115.62102859642225, "D": null}, "1": {"R": 2.5596848818430633, "A": 53.93367036376947, "D": 359.882126714332}, "4": {"R": 3.940565823043349, "A": 10.505417028501697, "D": 0.9086722088317174}, "5": {"R": 4.531566529892698, "A": 12.479560138702292, "D": 117.00883264982876}, "6": {"R": 1.7591514404712532, "A": 79.01430222197106, "D": 26.34517023498139}, "7": {"R": 1.7726723789172307, "A": 60.263057228540355, "D": 287.1989043951554}, "8": {"R": 2.58488825691174, "A": 108.99621392960745, "D": 101.60023293547688}, "9": {"R": 2.5490802040995835, "A": 137.0098268550892, "D": 297.5255233573668}, "10": {"R": 1.7672400051044226, "A": 90.05136668275985, "D": 52.35103321323361}, "11": {"R": 1.7731009680780359, "A": 59.51620759091022, "D": 67.94238250974769}}

$$$$

     RDKit          3D

 21 19  0  0  0  0  0  0  0  0999 V2000
   -2.8927   -0.5779    1.2667 C   0  0  0  0  0  0  0  0  0  0  0  0
   -2.0209   -0.0890    0.4201 C   0  0  0  0  0  0  0  0  0  0  0  0
   -1.1129    0.3721   -0.3599 C   0  0  0  0  0  0  0  0  0  0  0  0
   -1.1731    1.0014   -1.7093 C   0  0  0  0  0  0  0  0  0  0  0  0
   -3.1840   -1.6210    1.2313 H   0  0  0  0  0  0  0  0  0  0  0  0
   -3.3578    0.0499    2.0175 H   0  0  0  0  0  0  0  0  0  0  0  0
    0.0660    0.2887    0.0802 H   0  0  0  0  0  0  0  0  0  0  0  0
   -0.5700    0.4346   -2.4224 H   0  0  0  0  0  0  0  0  0  0  0  0
   -0.7658    2.0144   -1.6776 H   0  0  0  0  0  0  0  0  0  0  0  0
   -2.1972    1.0503   -2.0810 H   0  0  0  0  0  0  0  0  0  0  0  0
    1.7160    1.3352    1.4758 C   0  0  0  0  0  0  0  0  0  0  0  0
    1.4347    0.2860    0.4721 C   0  0  0  0  0  3  0  0  0  0  0  0
    2.1905   -0.6175   -0.1097 C   0  0  0  0  0  0  0  0  0  0  0  0
    1.7419   -1.6332   -1.1157 C   0  0  0  0  0  0  0  0  0  0  0  0
    1.1085    1.1900    2.3719 H   0  0  0  0  0  0  0  0  0  0  0  0
    1.4827    2.3277    1.0834 H   0  0  0  0  0  0  0  0  0  0  0  0
    2.7707    1.3212    1.7692 H   0  0  0  0  0  0  0  0  0  0  0  0
    3.2496   -0.6443    0.1601 H   0  0  0  0  0  0  0  0  0  0  0  0
    1.9733   -2.6442   -0.7723 H   0  0  0  0  0  0  0  0  0  0  0  0
    0.6679   -1.5715   -1.2905 H   0  0  0  0  0  0  0  0  0  0  0  0
    2.2595   -1.4923   -2.0680 H   0  0  0  0  0  0  0  0  0  0  0  0
  1  2  2  0
  1  5  1  0
  1  6  1  0
  2  3  2  0
  3  4  1  0
  3  7  1  0
  4  8  1  0
  4  9  1  0
  4 10  1  0
 11 12  1  0
 11 15  1  0
 11 16  1  0
 11 17  1  0
 12 13  2  3
 13 14  1  0
 13 18  1  0
 14 19  1  0
 14 20  1  0
 14 21  1  0
M  RAD  1  12   2
M  END
>  <reaction>  (3) 
rmg_rxn_13982

>  <type>  (3) 
ts

>  <mol_properties>  (3) 
{"1": {"label": "*0", "atom_type": "Cdd"}, "2": {"label": "*1", "atom_type": "Cd"}, "6": {"label": "*2", "atom_type": "H0"}, "11": {"label": "*3", "atom_type": "Cd"}, "12": {"label": "*4", "atom_type": "Cd"}}

$$$$
