
     RDKit          3D

  6  5  0  0  0  0  0  0  0  0999 V2000
    0.4678    0.7600    0.7476 C   0  0  0  0  0  0  0  0  0  0  0  0
   -0.0861   -0.4101    0.2307 N   0  0  0  0  0  0  0  0  0  0  0  0
   -0.3637   -0.4206   -0.9534 O   0  0  0  0  0  0  0  0  0  0  0  0
   -0.3463    1.1515    1.3534 H   0  0  0  0  0  0  0  0  0  0  0  0
    0.7071    1.5367    0.0230 H   0  0  0  0  0  0  0  0  0  0  0  0
    1.1955    0.5597    1.5290 H   0  0  0  0  0  0  0  0  0  0  0  0
  1  2  1  0
  1  4  1  0
  1  5  1  0
  1  6  1  0
  2  3  2  0
M  END
>  <reaction>  (1) 
rmg_rxn_2540

>  <type>  (1) 
r1h

>  <mol_properties>  (1) 
{"0": {"label": "donator", "atom_type": "Cs"}, "3": {"label": "d_hydrogen", "atom_type": "H0"}}

>  <electro_map>  (1) 
{"3": {"R": null, "A": null, "D": null}, "0": {"R": 1.0876175762063884, "A": null, "D": null}, "1": {"R": 1.3939876405121514, "A": 102.19472572163514, "D": null}, "2": {"R": 1.2162899718817357, "A": 122.64799675641412, "D": 269.0614852543589}, "4": {"R": 2.435330330063731, "A": 60.158958745954486, "D": 2.941846002151421}, "5": {"R": 1.8604410785755072, "A": 91.02737420383318, "D": 15.780932540292255}}

$$$$

     RDKit          3D

 13 12  0  0  0  0  0  0  0  0999 V2000
    2.0950    0.8061   -1.4348 H   0  0  0  0  0  0  0  0  0  0  0  0
    1.2418    0.8402   -0.8411 N   0  0  0  0  0  2  0  0  0  0  0  0
    0.7620   -0.3658   -0.9343 N   0  0  0  0  0  0  0  0  0  0  0  0
   -0.3310   -0.8440   -0.4152 C   0  0  0  0  0  3  0  0  0  0  0  0
   -1.2139    0.0140    0.4178 C   0  0  0  0  0  0  0  0  0  0  0  0
   -0.6332    0.3132    1.8049 C   0  0  0  0  0  0  0  0  0  0  0  0
    1.3371   -1.0131   -1.5133 H   0  0  0  0  0  0  0  0  0  0  0  0
   -0.5281   -1.8849   -0.6205 H   0  0  0  0  0  0  0  0  0  0  0  0
   -1.3729    0.9607   -0.1115 H   0  0  0  0  0  0  0  0  0  0  0  0
   -2.1852   -0.4718    0.5158 H   0  0  0  0  0  0  0  0  0  0  0  0
    0.3379    0.8018    1.7179 H   0  0  0  0  0  0  0  0  0  0  0  0
   -1.2975    0.9765    2.3600 H   0  0  0  0  0  0  0  0  0  0  0  0
   -0.5068   -0.6045    2.3811 H   0  0  0  0  0  0  0  0  0  0  0  0
  1  2  1  0
  2  3  1  0
  3  4  1  0
  3  7  1  0
  4  5  1  0
  4  8  1  0
  5  6  1  0
  5  9  1  0
  5 10  1  0
  6 11  1  0
  6 12  1  0
  6 13  1  0
M  CHG  2   2  -1   4   1
M  END
>  <reaction>  (2) 
rmg_rxn_2540

>  <type>  (2) 
r2h

>  <mol_properties>  (2) 
{"0": {"label": "a_hydrogen", "atom_type": "H0"}, "1": {"label": "acceptor", "atom_type": "N1sc"}}

>  <electro_map>  (2) 
{"0": {"R": null, "A": null, "D": null}, "1": {"R": 1.0399999190293794, "A": null, "D": null}, "2": {"R": 1.301274844618608, "A": 103.36997714781386, "D": null}, "3": {"R": 1.3010879475791848, "A": 161.64460362968092, "D": 6.643852544898952}, "4": {"R": 1.486514988304969, "A": 120.6845677448961, "D": 359.52788958142145}, "5": {"R": 1.5331745898270148, "A": 113.244508393814, "D": 286.95663556783717}, "6": {"R": 4.080542538417767, "A": 51.96357433297895, "D": 18.343259184048}, "7": {"R": 2.2441902387561248, "A": 53.23508514283646, "D": 309.28871531607894}, "8": {"R": 3.0117535817943626, "A": 86.17479031763885, "D": 39.14641597002287}, "9": {"R": 1.7622909124276345, "A": 54.64616858927633, "D": 189.78308742399688}, "10": {"R": 3.071398826784602, "A": 54.79700089643752, "D": 80.84492338531679}, "11": {"R": 1.765614264801608, "A": 54.71936945390659, "D": 102.38194511146237}, "12": {"R": 1.7677407880091778, "A": 60.105789544960786, "D": 66.1106716075788}}

$$$$

     RDKit          3D

 18 16  0  0  0  0  0  0  0  0999 V2000
    2.1009    0.5375   -1.1153 C   0  0  0  0  0  0  0  0  0  0  0  0
    1.5470   -0.6327   -1.6322 N   0  0  0  0  0  0  0  0  0  0  0  0
    1.2694   -0.6431   -2.8163 O   0  0  0  0  0  1  0  0  0  0  0  0
    1.1277    1.0055   -0.3911 H   0  0  0  0  0  0  0  0  0  0  0  0
    2.3401    1.3142   -1.8399 H   0  0  0  0  0  0  0  0  0  0  0  0
    2.8286    0.3371   -0.3339 H   0  0  0  0  0  0  0  0  0  0  0  0
    0.0613    1.0481    0.3510 N   0  0  0  0  0  2  0  0  0  0  0  0
   -0.4185   -0.1579    0.2578 N   0  0  0  0  0  0  0  0  0  0  0  0
   -1.5115   -0.6362    0.7768 C   0  0  0  0  0  3  0  0  0  0  0  0
   -2.3944    0.2219    1.6099 C   0  0  0  0  0  0  0  0  0  0  0  0
   -1.8136    0.5210    2.9969 C   0  0  0  0  0  0  0  0  0  0  0  0
    0.1567   -0.8052   -0.3212 H   0  0  0  0  0  0  0  0  0  0  0  0
   -1.7086   -1.6771    0.5715 H   0  0  0  0  0  0  0  0  0  0  0  0
   -2.5534    1.1686    1.0806 H   0  0  0  0  0  0  0  0  0  0  0  0
   -3.3657   -0.2640    1.7079 H   0  0  0  0  0  0  0  0  0  0  0  0
   -0.8425    1.0096    2.9099 H   0  0  0  0  0  0  0  0  0  0  0  0
   -2.4780    1.1843    3.5520 H   0  0  0  0  0  0  0  0  0  0  0  0
   -1.6873   -0.3966    3.5732 H   0  0  0  0  0  0  0  0  0  0  0  0
  1  2  2  3
  1  5  1  0
  1  6  1  0
  2  3  1  0
  4  7  1  0
  7  8  1  0
  8  9  1  0
  8 12  1  0
  9 10  1  0
  9 13  1  0
 10 11  1  0
 10 14  1  0
 10 15  1  0
 11 16  1  0
 11 17  1  0
 11 18  1  0
M  CHG  2   7  -1   9   1
M  RAD  1   3   2
M  END
>  <reaction>  (3) 
rmg_rxn_2540

>  <type>  (3) 
ts

>  <mol_properties>  (3) 
{"0": {"label": "*3", "atom_type": "Cd"}, "1": {"label": "*4", "atom_type": "N3d"}, "3": {"label": "*2", "atom_type": "H0"}, "6": {"label": "*1", "atom_type": "N1sc"}, "7": {"label": "*0", "atom_type": "N3s"}}

$$$$
