
     RDKit          3D

 14 13  0  0  0  0  0  0  0  0999 V2000
    0.7412   -1.8009    0.0058 C   0  0  0  0  0  0  0  0  0  0  0  0
    0.1161   -0.5211    0.5425 C   0  0  0  0  0  0  0  0  0  0  0  0
   -0.0808    0.5414   -0.5341 C   0  0  0  0  0  0  0  0  0  0  0  0
   -0.7441    1.7925   -0.0216 C   0  0  0  0  0  0  0  0  0  0  0  0
    0.1120   -2.2495   -0.7668 H   0  0  0  0  0  0  0  0  0  0  0  0
    0.8773   -2.5409    0.7958 H   0  0  0  0  0  0  0  0  0  0  0  0
    1.7191   -1.6030   -0.4393 H   0  0  0  0  0  0  0  0  0  0  0  0
   -0.8491   -0.7491    1.0052 H   0  0  0  0  0  0  0  0  0  0  0  0
    0.7425   -0.1086    1.3395 H   0  0  0  0  0  0  0  0  0  0  0  0
   -0.6742    0.1219   -1.3543 H   0  0  0  0  0  0  0  0  0  0  0  0
    0.8946    0.7886   -0.9728 H   0  0  0  0  0  0  0  0  0  0  0  0
   -0.2965    2.2110    0.8795 H   0  0  0  0  0  0  0  0  0  0  0  0
   -1.7433    1.4985    0.2967 H   0  0  0  0  0  0  0  0  0  0  0  0
   -0.9311    2.5581   -0.7726 H   0  0  0  0  0  0  0  0  0  0  0  0
  1  2  1  0
  1  5  1  0
  1  6  1  0
  1  7  1  0
  2  3  1  0
  2  8  1  0
  2  9  1  0
  3  4  1  0
  3 10  1  0
  3 11  1  0
  4 12  1  0
  4 13  1  0
  4 14  1  0
M  END
>  <reaction>  (1) 
rmg_rxn_2743

>  <type>  (1) 
r1h

>  <mol_properties>  (1) 
{"3": {"label": "donator", "atom_type": "Cs"}, "12": {"label": "d_hydrogen", "atom_type": "H0"}}

>  <electro_map>  (1) 
{"12": {"R": null, "A": null, "D": null}, "3": {"R": 1.0891367488819748, "A": null, "D": null}, "2": {"R": 1.5059153426440728, "A": 106.21683040635007, "D": null}, "1": {"R": 1.5253892964492854, "A": 98.11214858615612, "D": 123.4753032272009}, "0": {"R": 1.5220978935931369, "A": 112.94445583660374, "D": 177.93190595572088}, "4": {"R": 1.0927427831309795, "A": 110.9784296252546, "D": 299.7711498255057}, "5": {"R": 1.7641584669285089, "A": 36.07609483828342, "D": 237.66913496717402}, "6": {"R": 1.7645699378551918, "A": 59.94754823318206, "D": 322.21044222600375}, "7": {"R": 3.0677759306648524, "A": 54.48026223859197, "D": 66.31158530740721}, "8": {"R": 1.7478615092447307, "A": 55.2333797607806, "D": 104.19291853262662}, "9": {"R": 3.0523980578396745, "A": 55.68309451243513, "D": 61.14275640527117}, "10": {"R": 1.7467832974571134, "A": 54.49328619979457, "D": 178.1595924204556}, "11": {"R": 2.6216511027202936, "A": 87.32619036151115, "D": 299.36717586174683}, "13": {"R": 1.8034564026083384, "A": 67.48310622716865, "D": 299.9402128062495}}

$$$$

     RDKit          3D

  9  8  0  0  0  0  0  0  0  0999 V2000
    1.1162    1.1835    0.6391 C   0  0  0  0  0  0  0  0  0  0  0  0
    0.7532    0.1709   -0.4033 C   0  0  0  0  0  0  0  0  0  0  0  0
   -0.8487   -0.6628   -0.1083 S   0  0  0  0  0  0  0  0  0  0  0  0
    0.4922    2.0760    0.6359 H   0  0  0  0  0  0  0  0  0  0  0  0
    1.2287    0.7754    1.6414 H   0  0  0  0  0  0  0  0  0  0  0  0
    1.4738   -0.6488   -0.4197 H   0  0  0  0  0  0  0  0  0  0  0  0
    0.7393    0.6105   -1.4004 H   0  0  0  0  0  0  0  0  0  0  0  0
   -1.6067    0.4408   -0.1473 H   0  0  0  0  0  0  0  0  0  0  0  0
    2.1052    1.5577    0.3808 H   0  0  0  0  0  0  0  0  0  0  0  0
  1  2  1  0
  1  4  1  0
  1  5  1  0
  1  9  1  0
  2  3  1  0
  2  6  1  0
  2  7  1  0
  3  8  1  0
M  END
>  <reaction>  (2) 
rmg_rxn_2743

>  <type>  (2) 
r2h

>  <mol_properties>  (2) 
{"0": {"label": "acceptor", "atom_type": "Cs"}, "8": {"label": "a_hydrogen", "atom_type": "H0"}}

>  <electro_map>  (2) 
{"8": {"R": null, "A": null, "D": null}, "0": {"R": 1.0884970271009045, "A": null, "D": null}, "1": {"R": 1.4978980596003006, "A": 106.70400705220639, "D": null}, "2": {"R": 1.829825433732732, "A": 143.93563840748493, "D": 354.904833263266}, "7": {"R": 1.3394104726902867, "A": 96.61868367408805, "D": 60.49745146277825}, "3": {"R": 2.773480826026022, "A": 92.82705400188347, "D": 333.9425467138625}, "4": {"R": 1.8013895128742994, "A": 92.3694901543066, "D": 327.8123064490795}, "5": {"R": 2.517199006104648, "A": 89.49920685925036, "D": 60.585207791074346}, "6": {"R": 1.7570432208829296, "A": 90.62008822885151, "D": 359.4016689093532}}

$$$$

     RDKit          3D

 22 20  0  0  0  0  0  0  0  0999 V2000
   -0.9149    1.0511    0.6506 C   0  0  0  0  0  0  0  0  0  0  0  0
   -1.2779    0.0385   -0.3918 C   0  0  0  0  0  0  0  0  0  0  0  0
   -2.8798   -0.7953   -0.0968 S   0  0  0  0  0  0  0  0  0  0  0  0
   -1.5389    1.9435    0.6474 H   0  0  0  0  0  0  0  0  0  0  0  0
   -0.8024    0.6429    1.6529 H   0  0  0  0  0  0  0  0  0  0  0  0
   -0.5573   -0.7812   -0.4082 H   0  0  0  0  0  0  0  0  0  0  0  0
   -1.2918    0.4781   -1.3889 H   0  0  0  0  0  0  0  0  0  0  0  0
   -3.6378    0.3084   -0.1358 H   0  0  0  0  0  0  0  0  0  0  0  0
    3.0299   -1.7159   -0.0352 C   0  0  0  0  0  0  0  0  0  0  0  0
    2.4048   -0.4361    0.5015 C   0  0  0  0  0  0  0  0  0  0  0  0
    2.2078    0.6265   -0.5751 C   0  0  0  0  0  0  0  0  0  0  0  0
    1.5446    1.8775   -0.0626 C   0  0  0  0  0  3  0  0  0  0  0  0
    2.4007   -2.1645   -0.8078 H   0  0  0  0  0  0  0  0  0  0  0  0
    3.1660   -2.4558    0.7548 H   0  0  0  0  0  0  0  0  0  0  0  0
    4.0078   -1.5179   -0.4803 H   0  0  0  0  0  0  0  0  0  0  0  0
    1.4396   -0.6640    0.9642 H   0  0  0  0  0  0  0  0  0  0  0  0
    3.0312   -0.0236    1.2985 H   0  0  0  0  0  0  0  0  0  0  0  0
    1.6144    0.2070   -1.3954 H   0  0  0  0  0  0  0  0  0  0  0  0
    3.1833    0.8736   -1.0138 H   0  0  0  0  0  0  0  0  0  0  0  0
    1.9922    2.2961    0.8385 H   0  0  0  0  0  0  0  0  0  0  0  0
    0.3077    1.5136    0.3314 H   0  0  0  0  0  0  0  0  0  0  0  0
    1.3576    2.6431   -0.8136 H   0  0  0  0  0  0  0  0  0  0  0  0
  1  2  1  0
  1  4  1  0
  1  5  1  0
  1 21  1  0
  2  3  1  0
  2  6  1  0
  2  7  1  0
  3  8  1  0
  9 10  1  0
  9 13  1  0
  9 14  1  0
  9 15  1  0
 10 11  1  0
 10 16  1  0
 10 17  1  0
 11 12  1  0
 11 18  1  0
 11 19  1  0
 12 20  1  0
 12 22  1  0
M  RAD  1  12   2
M  END
>  <reaction>  (3) 
rmg_rxn_2743

>  <type>  (3) 
ts

>  <mol_properties>  (3) 
{"0": {"label": "*1", "atom_type": "Cs"}, "1": {"label": "*0", "atom_type": "Cs"}, "10": {"label": "*4", "atom_type": "Cs"}, "11": {"label": "*3", "atom_type": "Cs"}, "20": {"label": "*2", "atom_type": "H0"}}

$$$$
