
     RDKit          3D

  5  4  0  0  0  0  0  0  0  0999 V2000
   -0.2376   -0.0279    0.6695 N   0  0  0  0  0  2  0  0  0  0  0  0
    0.1614   -0.0294   -0.6079 N   0  0  0  0  0  0  0  0  0  0  0  0
   -0.0895    0.9461    1.0024 H   0  0  0  0  0  0  0  0  0  0  0  0
    0.3055   -0.9525   -0.9883 H   0  0  0  0  0  0  0  0  0  0  0  0
    0.8246    0.6775   -0.9130 H   0  0  0  0  0  0  0  0  0  0  0  0
  1  2  1  0
  1  3  1  0
  2  4  1  0
  2  5  1  0
M  RAD  1   1   2
M  END
>  <reaction>  (1) 
rmg_rxn_2719

>  <type>  (1) 
r1h

>  <mol_properties>  (1) 
{"0": {"label": "donator", "atom_type": "N3s"}, "2": {"label": "d_hydrogen", "atom_type": "H0"}}

>  <electro_map>  (1) 
{"2": {"R": null, "A": null, "D": null}, "0": {"R": 1.040000033653699, "A": null, "D": null}, "1": {"R": 1.3382401726737976, "A": 105.31336680878927, "D": null}, "3": {"R": 1.0087554423812912, "A": 143.9596427801125, "D": 335.6444585716719}, "4": {"R": 1.7122677722152835, "A": 32.397358220337324, "D": 217.64582327174293}}

$$$$

     RDKit          3D

  9  8  0  0  0  0  0  0  0  0999 V2000
   -0.8235   -1.6105    1.2344 H   0  0  0  0  0  0  0  0  0  0  0  0
   -0.6637   -0.5724    1.5184 C   0  0  0  0  0  0  0  0  0  0  0  0
   -0.7417    0.3285    0.3240 C   0  0  0  0  0  0  0  0  0  0  0  0
    0.6184    0.1290   -0.8722 S   0  0  0  0  0  0  0  0  0  0  0  0
    0.2982   -0.6042    2.0249 H   0  0  0  0  0  0  0  0  0  0  0  0
   -1.5016   -0.4738    2.2062 H   0  0  0  0  0  0  0  0  0  0  0  0
   -0.7810    1.3800    0.6211 H   0  0  0  0  0  0  0  0  0  0  0  0
   -1.6467    0.1300   -0.2538 H   0  0  0  0  0  0  0  0  0  0  0  0
    1.6219    0.3319   -0.0080 H   0  0  0  0  0  0  0  0  0  0  0  0
  1  2  1  0
  2  3  1  0
  2  5  1  0
  2  6  1  0
  3  4  1  0
  3  7  1  0
  3  8  1  0
  4  9  1  0
M  END
>  <reaction>  (2) 
rmg_rxn_2719

>  <type>  (2) 
r2h

>  <mol_properties>  (2) 
{"0": {"label": "a_hydrogen", "atom_type": "H0"}, "1": {"label": "acceptor", "atom_type": "Cs"}}

>  <electro_map>  (2) 
{"0": {"R": null, "A": null, "D": null}, "1": {"R": 1.0880142223887137, "A": null, "D": null}, "2": {"R": 1.4980886520667906, "A": 110.97777960578557, "D": null}, "3": {"R": 1.822305398815669, "A": 102.0186811524879, "D": 120.51074690416335}, "8": {"R": 1.3397403154402188, "A": 96.83486987234446, "D": 304.5987523706269}, "4": {"R": 2.6002773283725413, "A": 93.92764326382608, "D": 29.524620064246925}, "5": {"R": 1.8135449258452578, "A": 123.88039746106963, "D": 328.4879013975308}, "6": {"R": 2.5433631509088754, "A": 73.07823461422491, "D": 337.0975901394473}, "7": {"R": 1.7542108555873765, "A": 69.60990950350063, "D": 108.68254557042152}}

$$$$

     RDKit          3D

 13 11  0  0  0  0  0  0  0  0999 V2000
   -0.8379   -1.9993    0.7163 N   0  0  0  0  0  2  0  0  0  0  0  0
   -0.4389   -2.0008   -0.5611 N   0  0  0  0  0  0  0  0  0  0  0  0
   -0.6707   -0.8995    1.0921 H   0  0  0  0  0  0  0  0  0  0  0  0
   -0.2948   -2.9239   -0.9416 H   0  0  0  0  0  0  0  0  0  0  0  0
    0.2243   -1.2939   -0.8663 H   0  0  0  0  0  0  0  0  0  0  0  0
   -0.4586    0.4784    1.4691 C   0  0  0  0  0  3  0  0  0  0  0  0
   -0.5366    1.3793    0.2747 C   0  0  0  0  0  0  0  0  0  0  0  0
    0.8235    1.1798   -0.9215 S   0  0  0  0  0  0  0  0  0  0  0  0
    0.5033    0.4467    1.9756 H   0  0  0  0  0  0  0  0  0  0  0  0
   -1.2965    0.5770    2.1569 H   0  0  0  0  0  0  0  0  0  0  0  0
   -0.5759    2.4309    0.5718 H   0  0  0  0  0  0  0  0  0  0  0  0
   -1.4416    1.1809   -0.3031 H   0  0  0  0  0  0  0  0  0  0  0  0
    1.8270    1.3828   -0.0573 H   0  0  0  0  0  0  0  0  0  0  0  0
  1  2  1  0
  1  3  1  0
  2  4  1  0
  2  5  1  0
  6  7  1  0
  6  9  1  0
  6 10  1  0
  7  8  1  0
  7 11  1  0
  7 12  1  0
  8 13  1  0
M  RAD  2   1   2   6   2
M  END
>  <reaction>  (3) 
rmg_rxn_2719

>  <type>  (3) 
ts

>  <mol_properties>  (3) 
{"0": {"label": "*1", "atom_type": "N3s"}, "1": {"label": "*0", "atom_type": "N3s"}, "2": {"label": "*2", "atom_type": "H0"}, "5": {"label": "*3", "atom_type": "Cs"}, "6": {"label": "*4", "atom_type": "Cs"}}

$$$$
