
     RDKit          3D

 10  9  0  0  0  0  0  0  0  0999 V2000
   -1.5316    0.6731   -0.8696 C   0  0  0  0  0  0  0  0  0  0  0  0
   -0.5176    0.4261   -0.1334 C   0  0  0  0  0  0  0  0  0  0  0  0
    0.4709    0.0724    0.6591 C   0  0  0  0  0  0  0  0  0  0  0  0
    1.4563   -1.0114    0.3376 C   0  0  0  0  0  0  0  0  0  0  0  0
   -2.4341    0.1107   -0.6797 H   0  0  0  0  0  0  0  0  0  0  0  0
   -1.6485    1.3864   -1.6723 H   0  0  0  0  0  0  0  0  0  0  0  0
    0.5912    0.6014    1.5997 H   0  0  0  0  0  0  0  0  0  0  0  0
    2.4753   -0.6176    0.3049 H   0  0  0  0  0  0  0  0  0  0  0  0
    1.2339   -1.4715   -0.6246 H   0  0  0  0  0  0  0  0  0  0  0  0
    1.4369   -1.7907    1.1046 H   0  0  0  0  0  0  0  0  0  0  0  0
  1  2  2  0
  1  5  1  0
  1  6  1  0
  2  3  2  0
  3  4  1  0
  3  7  1  0
  4  8  1  0
  4  9  1  0
  4 10  1  0
M  END
>  <reaction>  (1) 
rmg_rxn_13985

>  <type>  (1) 
r1h

>  <mol_properties>  (1) 
{"0": {"label": "donator", "atom_type": "Cd"}, "4": {"label": "d_hydrogen", "atom_type": "H0"}}

>  <electro_map>  (1) 
{"4": {"R": null, "A": null, "D": null}, "0": {"R": 1.080207527231463, "A": null, "D": null}, "1": {"R": 1.2771701519793413, "A": 117.47153636682998, "D": null}, "2": {"R": 1.315390492105248, "A": 146.60408425667933, "D": 182.42968733335283}, "3": {"R": 1.4997292910120748, "A": 123.98484388030626, "D": 75.42554293326617}, "5": {"R": 4.407867134888824, "A": 40.69147402497498, "D": 13.12505009726677}, "6": {"R": 4.042087152899569, "A": 30.111620198886047, "D": 6.489764640547622}, "7": {"R": 2.5908550054511426, "A": 95.14889500663334, "D": 22.188890782791642}, "8": {"R": 1.7702887052871175, "A": 88.81937230897206, "D": 316.14234583962025}, "9": {"R": 1.7700845219749544, "A": 59.582607574202434, "D": 292.5350947122209}}

$$$$

     RDKit          3D

 18 17  0  0  0  0  0  0  0  0999 V2000
    0.1453    1.8103   -0.6224 H   0  0  0  0  0  0  0  0  0  0  0  0
   -1.6292    2.5236    0.1129 C   0  0  0  0  0  0  0  0  0  0  0  0
   -0.8019    1.3508   -0.3395 C   0  0  0  0  0  0  0  0  0  0  0  0
   -0.4864    0.3418    0.7364 C   0  0  0  0  0  0  0  0  0  0  0  0
   -0.0566   -0.9065    0.2623 O   0  0  0  0  0  0  0  0  0  0  0  0
    1.2741   -0.9301   -0.2040 C   0  0  0  0  0  0  0  0  0  0  0  0
    1.6306   -2.3510   -0.5722 C   0  0  0  0  0  0  0  0  0  0  0  0
   -1.7202    3.2738   -0.6736 H   0  0  0  0  0  0  0  0  0  0  0  0
   -2.6403    2.2087    0.3915 H   0  0  0  0  0  0  0  0  0  0  0  0
   -1.1797    3.0058    0.9845 H   0  0  0  0  0  0  0  0  0  0  0  0
   -1.1425    0.8837   -1.2637 H   0  0  0  0  0  0  0  0  0  0  0  0
   -1.3966    0.1423    1.3141 H   0  0  0  0  0  0  0  0  0  0  0  0
    0.2515    0.7653    1.4372 H   0  0  0  0  0  0  0  0  0  0  0  0
    1.9451   -0.5528    0.5797 H   0  0  0  0  0  0  0  0  0  0  0  0
    1.3925   -0.2687   -1.0710 H   0  0  0  0  0  0  0  0  0  0  0  0
    0.9725   -2.7199   -1.3599 H   0  0  0  0  0  0  0  0  0  0  0  0
    2.6601   -2.3987   -0.9315 H   0  0  0  0  0  0  0  0  0  0  0  0
    1.5333   -3.0081    0.2928 H   0  0  0  0  0  0  0  0  0  0  0  0
  1  3  1  0
  2  3  1  0
  2  8  1  0
  2  9  1  0
  2 10  1  0
  3  4  1  0
  3 11  1  0
  4  5  1  0
  4 12  1  0
  4 13  1  0
  5  6  1  0
  6  7  1  0
  6 14  1  0
  6 15  1  0
  7 16  1  0
  7 17  1  0
  7 18  1  0
M  END
>  <reaction>  (2) 
rmg_rxn_13985

>  <type>  (2) 
r2h

>  <mol_properties>  (2) 
{"0": {"label": "a_hydrogen", "atom_type": "H0"}, "2": {"label": "acceptor", "atom_type": "Cs"}}

>  <electro_map>  (2) 
{"0": {"R": null, "A": null, "D": null}, "2": {"R": 1.0900918001487145, "A": null, "D": null}, "3": {"R": 1.508330182165293, "A": 106.58147580313752, "D": null}, "4": {"R": 1.402836450077882, "A": 108.16160656939189, "D": 108.21732834880108}, "5": {"R": 1.4101567994853716, "A": 114.56905231667687, "D": 75.9046634498704}, "1": {"R": 4.522997899016407, "A": 50.08546435439054, "D": 335.1686193104818}, "6": {"R": 5.904001282193011, "A": 6.788387970618616, "D": 314.86366671836896}, "7": {"R": 6.548053644462736, "A": 8.118308002953555, "D": 269.0384018118669}, "8": {"R": 1.7650575654365523, "A": 74.87275992286875, "D": 329.90102084463933}, "9": {"R": 1.7663629390733202, "A": 59.949811113652466, "D": 78.16394764150859}, "10": {"R": 3.0916813571577486, "A": 57.05391130936774, "D": 294.67163553222764}, "11": {"R": 2.6942767378361796, "A": 59.47087161837446, "D": 282.5630080489641}, "12": {"R": 1.7662166178168084, "A": 83.20350898379192, "D": 293.5450042300056}, "13": {"R": 2.3109823866090027, "A": 117.17781426902724, "D": 283.9600289297436}, "14": {"R": 1.7637249335569904, "A": 91.4814886346162, "D": 69.4230351193647}, "15": {"R": 2.5036196254508933, "A": 90.16554141957937, "D": 241.42113370577133}, "16": {"R": 1.7704987228505296, "A": 68.56357489113448, "D": 302.1083647872614}, "17": {"R": 1.7720071679394414, "A": 59.91138781923367, "D": 102.94819586645171}}

$$$$

     RDKit          3D

 27 25  0  0  0  0  0  0  0  0999 V2000
    0.3206    1.8760   -0.9005 C   0  0  0  0  0  0  0  0  0  0  0  0
    1.3346    1.6290   -0.1643 C   0  0  0  0  0  0  0  0  0  0  0  0
    2.3231    1.2753    0.6282 C   0  0  0  0  0  0  0  0  0  0  0  0
    3.3085    0.1915    0.3067 C   0  0  0  0  0  0  0  0  0  0  0  0
   -0.7849    1.1871   -0.6679 H   0  0  0  0  0  0  0  0  0  0  0  0
    0.2037    2.5893   -1.7032 H   0  0  0  0  0  0  0  0  0  0  0  0
    2.4434    1.8043    1.5688 H   0  0  0  0  0  0  0  0  0  0  0  0
    4.3275    0.5853    0.2740 H   0  0  0  0  0  0  0  0  0  0  0  0
    3.0861   -0.2686   -0.6554 H   0  0  0  0  0  0  0  0  0  0  0  0
    3.2891   -0.5878    1.0738 H   0  0  0  0  0  0  0  0  0  0  0  0
   -2.7878    1.7895    0.1357 C   0  0  0  0  0  0  0  0  0  0  0  0
   -1.9605    0.6167   -0.3167 C   0  0  0  0  0  3  0  0  0  0  0  0
   -1.6450   -0.3923    0.7592 C   0  0  0  0  0  0  0  0  0  0  0  0
   -1.2152   -1.6406    0.2850 O   0  0  0  0  0  0  0  0  0  0  0  0
    0.1154   -1.6642   -0.1812 C   0  0  0  0  0  0  0  0  0  0  0  0
    0.4720   -3.0851   -0.5495 C   0  0  0  0  0  0  0  0  0  0  0  0
   -2.8789    2.5397   -0.6508 H   0  0  0  0  0  0  0  0  0  0  0  0
   -3.7989    1.4746    0.4143 H   0  0  0  0  0  0  0  0  0  0  0  0
   -2.3384    2.2717    1.0072 H   0  0  0  0  0  0  0  0  0  0  0  0
   -2.3012    0.1496   -1.2409 H   0  0  0  0  0  0  0  0  0  0  0  0
   -2.5552   -0.5918    1.3369 H   0  0  0  0  0  0  0  0  0  0  0  0
   -0.9071    0.0312    1.4600 H   0  0  0  0  0  0  0  0  0  0  0  0
    0.7864   -1.2869    0.6025 H   0  0  0  0  0  0  0  0  0  0  0  0
    0.2339   -1.0028   -1.0482 H   0  0  0  0  0  0  0  0  0  0  0  0
   -0.1862   -3.4540   -1.3371 H   0  0  0  0  0  0  0  0  0  0  0  0
    1.5014   -3.1328   -0.9088 H   0  0  0  0  0  0  0  0  0  0  0  0
    0.3747   -3.7422    0.3155 H   0  0  0  0  0  0  0  0  0  0  0  0
  1  2  2  0
  1  5  1  0
  1  6  1  0
  2  3  2  0
  3  4  1  0
  3  7  1  0
  4  8  1  0
  4  9  1  0
  4 10  1  0
 11 12  1  0
 11 17  1  0
 11 18  1  0
 11 19  1  0
 12 13  1  0
 12 20  1  0
 13 14  1  0
 13 21  1  0
 13 22  1  0
 14 15  1  0
 15 16  1  0
 15 23  1  0
 15 24  1  0
 16 25  1  0
 16 26  1  0
 16 27  1  0
M  RAD  1  12   2
M  END
>  <reaction>  (3) 
rmg_rxn_13985

>  <type>  (3) 
ts

>  <mol_properties>  (3) 
{"0": {"label": "*1", "atom_type": "Cd"}, "1": {"label": "*0", "atom_type": "Cdd"}, "4": {"label": "*2", "atom_type": "H0"}, "11": {"label": "*3", "atom_type": "Cs"}, "12": {"label": "*4", "atom_type": "Cs"}}

$$$$
