
     RDKit          3D

 10  9  0  0  0  0  0  0  0  0999 V2000
   -1.4959   -1.1410   -0.1544 C   0  0  0  0  0  0  0  0  0  0  0  0
   -0.4780   -0.4581    0.1784 C   0  0  0  0  0  0  0  0  0  0  0  0
    0.5128    0.3473    0.5227 C   0  0  0  0  0  0  0  0  0  0  0  0
    1.3591    1.1081   -0.4515 C   0  0  0  0  0  0  0  0  0  0  0  0
   -2.4349   -0.6109   -0.2040 H   0  0  0  0  0  0  0  0  0  0  0  0
   -1.6207   -2.1831   -0.4065 H   0  0  0  0  0  0  0  0  0  0  0  0
    0.7482    0.4442    1.5786 H   0  0  0  0  0  0  0  0  0  0  0  0
    1.0243    0.9479   -1.4753 H   0  0  0  0  0  0  0  0  0  0  0  0
    2.4053    0.8005   -0.3766 H   0  0  0  0  0  0  0  0  0  0  0  0
    1.3253    2.1796   -0.2373 H   0  0  0  0  0  0  0  0  0  0  0  0
  1  2  2  0
  1  5  1  0
  1  6  1  0
  2  3  2  0
  3  4  1  0
  3  7  1  0
  4  8  1  0
  4  9  1  0
  4 10  1  0
M  END
>  <reaction>  (1) 
rmg_rxn_14111

>  <type>  (1) 
r1h

>  <mol_properties>  (1) 
{"0": {"label": "donator", "atom_type": "Cd"}, "4": {"label": "d_hydrogen", "atom_type": "H0"}}

>  <electro_map>  (1) 
{"4": {"R": null, "A": null, "D": null}, "0": {"R": 1.0794057011835252, "A": null, "D": null}, "1": {"R": 1.2701210412593629, "A": 116.43382749316673, "D": null}, "2": {"R": 1.322443309210663, "A": 146.04558901621394, "D": 179.18839627633884}, "3": {"R": 1.498090004828528, "A": 124.28178625101384, "D": 274.4403447332027}, "5": {"R": 4.439999803079137, "A": 40.340224133480014, "D": 347.55398070080804}, "6": {"R": 4.0564769992879235, "A": 29.88021233848732, "D": 353.29285067789914}, "7": {"R": 3.1074072971157896, "A": 71.0920187132479, "D": 2.8147342754257565}, "8": {"R": 1.770884890834264, "A": 56.36366649384354, "D": 228.13982400071703}, "9": {"R": 1.7572057736549203, "A": 60.29832681610916, "D": 292.7562112004352}}

$$$$

     RDKit          3D

  5  4  0  0  0  0  0  0  0  0999 V2000
    0.2046    0.5593    0.1706 C   0  0  0  0  0  0  0  0  0  0  0  0
   -0.2824   -0.5353   -0.1796 N   0  0  0  0  0  0  0  0  0  0  0  0
    1.2721    0.6924    0.4031 H   0  0  0  0  0  0  0  0  0  0  0  0
   -0.4396    1.4383    0.2573 H   0  0  0  0  0  0  0  0  0  0  0  0
    0.5010   -1.2192   -0.1939 H   0  0  0  0  0  0  0  0  0  0  0  0
  1  2  2  3
  1  3  1  0
  1  4  1  0
  2  5  1  0
M  END
>  <reaction>  (2) 
rmg_rxn_14111

>  <type>  (2) 
r2h

>  <mol_properties>  (2) 
{"1": {"label": "acceptor", "atom_type": "N3d"}, "4": {"label": "a_hydrogen", "atom_type": "H0"}}

>  <electro_map>  (2) 
{"4": {"R": null, "A": null, "D": null}, "1": {"R": 1.0399999763415406, "A": null, "D": null}, "0": {"R": 1.2481699421699106, "A": 106.65889674335288, "D": null}, "2": {"R": 1.1006068419778792, "A": 90.14450599825987, "D": 179.9884980394003}, "3": {"R": 1.8728329533364436, "A": 31.26559863549632, "D": 180.0198370137446}}

$$$$

     RDKit          3D

 14 12  0  0  0  0  0  0  0  0999 V2000
   -1.9992    1.1317    0.1560 C   0  0  0  0  0  0  0  0  0  0  0  0
   -2.4862    0.0371   -0.1943 N   0  0  0  0  0  0  0  0  0  0  0  0
   -0.9317    1.2648    0.3884 H   0  0  0  0  0  0  0  0  0  0  0  0
   -2.6434    2.0106    0.2426 H   0  0  0  0  0  0  0  0  0  0  0  0
   -0.3763   -1.4431   -0.1493 C   0  0  0  0  0  0  0  0  0  0  0  0
    0.6416   -0.7602    0.1834 C   0  0  0  0  0  0  0  0  0  0  0  0
    1.6324    0.0452    0.5277 C   0  0  0  0  0  3  0  0  0  0  0  0
    2.4787    0.8060   -0.4465 C   0  0  0  0  0  0  0  0  0  0  0  0
   -1.5494   -0.7808   -0.2114 H   0  0  0  0  0  0  0  0  0  0  0  0
   -0.5012   -2.4852   -0.4015 H   0  0  0  0  0  0  0  0  0  0  0  0
    1.8678    0.1421    1.5836 H   0  0  0  0  0  0  0  0  0  0  0  0
    2.1439    0.6458   -1.4702 H   0  0  0  0  0  0  0  0  0  0  0  0
    3.5249    0.4984   -0.3716 H   0  0  0  0  0  0  0  0  0  0  0  0
    2.4449    1.8775   -0.2323 H   0  0  0  0  0  0  0  0  0  0  0  0
  1  2  2  3
  1  3  1  0
  1  4  1  0
  2  9  1  0
  5  6  3  0
  5 10  1  0
  6  7  1  0
  7  8  1  0
  7 11  1  0
  8 12  1  0
  8 13  1  0
  8 14  1  0
M  RAD  1   7   2
M  END
>  <reaction>  (3) 
rmg_rxn_14111

>  <type>  (3) 
ts

>  <mol_properties>  (3) 
{"0": {"label": "*0", "atom_type": "Cd"}, "1": {"label": "*1", "atom_type": "N3d"}, "4": {"label": "*3", "atom_type": "Ct"}, "5": {"label": "*4", "atom_type": "Ct"}, "8": {"label": "*2", "atom_type": "H0"}}

$$$$
