
     RDKit          3D

 13 12  0  0  0  0  0  0  0  0999 V2000
   -1.8190   -0.8815    0.0977 N   0  0  0  0  0  2  0  0  0  0  0  0
   -1.2829    0.1552   -0.4842 N   0  0  0  0  0  0  0  0  0  0  0  0
   -0.0409    0.5548   -0.3995 C   0  0  0  0  0  3  0  0  0  0  0  0
    0.9262   -0.2112    0.4236 C   0  0  0  0  0  0  0  0  0  0  0  0
    2.3269    0.3841    0.3973 C   0  0  0  0  0  0  0  0  0  0  0  0
   -2.7948   -0.8426   -0.2598 H   0  0  0  0  0  0  0  0  0  0  0  0
   -1.9076    0.7301   -1.0584 H   0  0  0  0  0  0  0  0  0  0  0  0
    0.2186    1.4450   -0.9528 H   0  0  0  0  0  0  0  0  0  0  0  0
    0.9406   -1.2527    0.0770 H   0  0  0  0  0  0  0  0  0  0  0  0
    0.5502   -0.2708    1.4534 H   0  0  0  0  0  0  0  0  0  0  0  0
    2.3280    1.4067    0.7807 H   0  0  0  0  0  0  0  0  0  0  0  0
    2.7264    0.4064   -0.6187 H   0  0  0  0  0  0  0  0  0  0  0  0
    3.0102   -0.2028    1.0114 H   0  0  0  0  0  0  0  0  0  0  0  0
  1  2  1  0
  1  6  1  0
  2  3  1  0
  2  7  1  0
  3  4  1  0
  3  8  1  0
  4  5  1  0
  4  9  1  0
  4 10  1  0
  5 11  1  0
  5 12  1  0
  5 13  1  0
M  CHG  2   1  -1   3   1
M  END
>  <reaction>  (1) 
rmg_rxn_2510

>  <type>  (1) 
r1h

>  <mol_properties>  (1) 
{"0": {"label": "donator", "atom_type": "N1sc"}, "5": {"label": "d_hydrogen", "atom_type": "H0"}}

>  <electro_map>  (1) 
{"5": {"R": null, "A": null, "D": null}, "0": {"R": 1.040000033653699, "A": null, "D": null}, "1": {"R": 1.3041661300089324, "A": 101.68879546995827, "D": null}, "2": {"R": 1.3074228998504442, "A": 161.07238952256603, "D": 4.202000393197954}, "3": {"R": 1.4830230981387436, "A": 119.84133298003574, "D": 0.4832024895419463}, "4": {"R": 1.522229385629832, "A": 112.86094047258125, "D": 179.34795511151407}, "6": {"R": 4.4911065700188635, "A": 33.70575955328834, "D": 359.9700705907125}, "7": {"R": 2.245668692796784, "A": 27.941061515672082, "D": 179.55514326848294}, "8": {"R": 2.9764490781785993, "A": 87.55910340395187, "D": 16.73463508194869}, "9": {"R": 1.735179954892459, "A": 72.96207934638001, "D": 270.485294100175}, "10": {"R": 2.5351492906660065, "A": 90.35341813543133, "D": 302.9186005774505}, "11": {"R": 1.765665712140381, "A": 89.63509213778516, "D": 359.93855429855955}, "12": {"R": 1.7631617555029133, "A": 59.954805780127344, "D": 294.8834797251188}}

$$$$

     RDKit          3D

 14 14  0  0  0  0  0  0  0  0999 V2000
    1.5079   -1.0270   -0.4607 H   0  0  0  0  0  0  0  0  0  0  0  0
    0.5886   -0.7086   -0.9479 C   0  0  0  0  0  0  0  0  0  0  0  0
   -0.4949   -1.2330   -0.2919 O   0  0  0  0  0  0  0  0  0  0  0  0
   -0.6303   -0.7429    1.0351 C   0  0  0  0  0  0  0  0  0  0  0  0
   -0.7044    0.7737    1.0123 C   0  0  0  0  0  0  0  0  0  0  0  0
    0.5121    1.3033    0.2738 C   0  0  0  0  0  0  0  0  0  0  0  0
    0.6367    0.6834   -1.0049 O   0  0  0  0  0  0  0  0  0  0  0  0
    0.6114   -1.0941   -1.9651 H   0  0  0  0  0  0  0  0  0  0  0  0
   -1.5377   -1.1920    1.4345 H   0  0  0  0  0  0  0  0  0  0  0  0
    0.2257   -1.0782    1.6329 H   0  0  0  0  0  0  0  0  0  0  0  0
   -1.6169    1.0890    0.5023 H   0  0  0  0  0  0  0  0  0  0  0  0
   -0.7238    1.1712    2.0290 H   0  0  0  0  0  0  0  0  0  0  0  0
    1.4169    1.1053    0.8616 H   0  0  0  0  0  0  0  0  0  0  0  0
    0.4427    2.3729    0.0825 H   0  0  0  0  0  0  0  0  0  0  0  0
  1  2  1  0
  2  3  1  0
  2  7  1  0
  2  8  1  0
  3  4  1  0
  4  5  1  0
  4  9  1  0
  4 10  1  0
  5  6  1  0
  5 11  1  0
  5 12  1  0
  6  7  1  0
  6 13  1  0
  6 14  1  0
M  END
>  <reaction>  (2) 
rmg_rxn_2510

>  <type>  (2) 
r2h

>  <mol_properties>  (2) 
{"0": {"label": "a_hydrogen", "atom_type": "H0"}, "1": {"label": "acceptor", "atom_type": "Cs"}}

>  <electro_map>  (2) 
{"0": {"R": null, "A": null, "D": null}, "1": {"R": 1.0880647858902395, "A": null, "D": null}, "2": {"R": 1.3708685013377104, "A": 109.97453357632459, "D": null}, "6": {"R": 2.3369628289024784, "A": 53.907699031198405, "D": 324.8287991549098}, "3": {"R": 2.7930753674197835, "A": 30.543931406404706, "D": 229.49608895675857}, "5": {"R": 2.464022008240244, "A": 30.68146026770931, "D": 182.62009271266746}, "4": {"R": 1.5184709237599254, "A": 35.776734292888094, "D": 131.84050989625553}, "7": {"R": 3.7530727513064708, "A": 60.45191436955443, "D": 322.91508532317727}, "8": {"R": 4.023147602192632, "A": 32.26807049939689, "D": 157.93355097771834}, "9": {"R": 1.7781766511893815, "A": 64.08453807768949, "D": 287.2268837493626}, "10": {"R": 3.061097427248346, "A": 53.643154409423374, "D": 68.38119781656592}, "11": {"R": 1.7706848157049275, "A": 53.899026350330615, "D": 112.59712165175297}, "12": {"R": 2.439234581008256, "A": 91.64520736074701, "D": 64.02606597975478}, "13": {"R": 1.7784478080583497, "A": 73.12223473966513, "D": 50.17401579170051}}

$$$$

     RDKit          3D

 26 25  0  0  0  0  0  0  0  0999 V2000
    0.7634   -1.0872    0.0730 N   0  0  0  0  0  2  0  0  0  0  0  0
    1.2995   -0.0505   -0.5089 N   0  0  0  0  0  0  0  0  0  0  0  0
    2.5415    0.3491   -0.4242 C   0  0  0  0  0  3  0  0  0  0  0  0
    3.5086   -0.4169    0.3989 C   0  0  0  0  0  0  0  0  0  0  0  0
    4.9093    0.1785    0.3726 C   0  0  0  0  0  0  0  0  0  0  0  0
   -0.4333   -1.0395   -0.3654 H   0  0  0  0  0  0  0  0  0  0  0  0
    0.6748    0.5244   -1.0831 H   0  0  0  0  0  0  0  0  0  0  0  0
    2.8010    1.2393   -0.9776 H   0  0  0  0  0  0  0  0  0  0  0  0
    3.5230   -1.4583    0.0523 H   0  0  0  0  0  0  0  0  0  0  0  0
    3.1326   -0.4764    1.4287 H   0  0  0  0  0  0  0  0  0  0  0  0
    4.9104    1.2010    0.7560 H   0  0  0  0  0  0  0  0  0  0  0  0
    5.3087    0.2007   -0.6434 H   0  0  0  0  0  0  0  0  0  0  0  0
    5.5925   -0.4084    0.9867 H   0  0  0  0  0  0  0  0  0  0  0  0
   -1.5624   -0.6485   -0.9638 C   0  0  0  0  0  3  0  0  0  0  0  0
   -2.6459   -1.1728   -0.3078 O   0  0  0  0  0  0  0  0  0  0  0  0
   -2.7812   -0.6827    1.0192 C   0  0  0  0  0  0  0  0  0  0  0  0
   -2.8554    0.8339    0.9964 C   0  0  0  0  0  0  0  0  0  0  0  0
   -1.6389    1.3635    0.2579 C   0  0  0  0  0  0  0  0  0  0  0  0
   -1.5142    0.7435   -1.0208 O   0  0  0  0  0  0  0  0  0  0  0  0
   -1.5395   -1.0339   -1.9810 H   0  0  0  0  0  0  0  0  0  0  0  0
   -3.6886   -1.1319    1.4186 H   0  0  0  0  0  0  0  0  0  0  0  0
   -1.9252   -1.0180    1.6170 H   0  0  0  0  0  0  0  0  0  0  0  0
   -3.7678    1.1492    0.4863 H   0  0  0  0  0  0  0  0  0  0  0  0
   -2.8748    1.2314    2.0131 H   0  0  0  0  0  0  0  0  0  0  0  0
   -0.7341    1.1655    0.8457 H   0  0  0  0  0  0  0  0  0  0  0  0
   -1.7083    2.4331    0.0666 H   0  0  0  0  0  0  0  0  0  0  0  0
  1  2  1  0
  1  6  1  0
  2  3  1  0
  2  7  1  0
  3  4  1  0
  3  8  1  0
  4  5  1  0
  4  9  1  0
  4 10  1  0
  5 11  1  0
  5 12  1  0
  5 13  1  0
 14 15  1  0
 14 19  1  0
 14 20  1  0
 15 16  1  0
 16 17  1  0
 16 21  1  0
 16 22  1  0
 17 18  1  0
 17 23  1  0
 17 24  1  0
 18 19  1  0
 18 25  1  0
 18 26  1  0
M  CHG  2   1  -1   3   1
M  RAD  1  14   2
M  END
>  <reaction>  (3) 
rmg_rxn_2510

>  <type>  (3) 
ts

>  <mol_properties>  (3) 
{"0": {"label": "*1", "atom_type": "N1sc"}, "1": {"label": "*0", "atom_type": "N3s"}, "5": {"label": "*2", "atom_type": "H0"}, "13": {"label": "*3", "atom_type": "Cs"}, "14": {"label": "*4", "atom_type": "O2s"}}

$$$$
