
     RDKit          3D

 10  9  0  0  0  0  0  0  0  0999 V2000
    0.0456    1.3316    1.3417 C   0  0  0  0  0  0  0  0  0  0  0  0
    0.0522    0.2812    0.6166 C   0  0  0  0  0  0  0  0  0  0  0  0
   -0.0187   -0.7938   -0.1352 C   0  0  0  0  0  0  0  0  0  0  0  0
   -0.0457   -0.7827   -1.6312 C   0  0  0  0  0  0  0  0  0  0  0  0
   -0.9165    1.7430    1.6130 H   0  0  0  0  0  0  0  0  0  0  0  0
    0.8627    1.9078    1.7524 H   0  0  0  0  0  0  0  0  0  0  0  0
   -0.0488   -1.7592    0.3621 H   0  0  0  0  0  0  0  0  0  0  0  0
    0.8016   -1.3439   -2.0323 H   0  0  0  0  0  0  0  0  0  0  0  0
   -0.0115    0.2324   -2.0224 H   0  0  0  0  0  0  0  0  0  0  0  0
   -0.9544   -1.2685   -1.9951 H   0  0  0  0  0  0  0  0  0  0  0  0
  1  2  2  0
  1  5  1  0
  1  6  1  0
  2  3  2  0
  3  4  1  0
  3  7  1  0
  4  8  1  0
  4  9  1  0
  4 10  1  0
M  END
>  <reaction>  (1) 
rmg_rxn_14002

>  <type>  (1) 
r1h

>  <mol_properties>  (1) 
{"0": {"label": "donator", "atom_type": "Cd"}, "4": {"label": "d_hydrogen", "atom_type": "H0"}}

>  <electro_map>  (1) 
{"4": {"R": null, "A": null, "D": null}, "0": {"R": 1.0809545013952293, "A": null, "D": null}, "1": {"R": 1.276387127674554, "A": 117.41580009034519, "D": null}, "2": {"R": 1.3137337018135375, "A": 148.19153791565935, "D": 180.58845809943332}, "3": {"R": 1.4962899101881328, "A": 124.54162147317706, "D": 85.03132674183598}, "5": {"R": 4.417324137185202, "A": 40.09207482626362, "D": 14.286948527191257}, "6": {"R": 4.026292221478016, "A": 30.027020500971897, "D": 7.103798242535452}, "7": {"R": 2.5746309590002845, "A": 95.70633862729771, "D": 22.482001230682474}, "8": {"R": 1.7736949985786137, "A": 89.24163587333965, "D": 315.21956977690337}, "9": {"R": 1.7727409709054387, "A": 59.43262014135463, "D": 292.77801282391664}}

$$$$

     RDKit          3D

  2  1  0  0  0  0  0  0  0  0999 V2000
   -0.0679    0.0307    0.0198 O   0  0  0  0  0  1  0  0  0  0  0  0
    0.7774   -0.3516   -0.2272 H   0  0  0  0  0  0  0  0  0  0  0  0
  1  2  1  0
M  RAD  1   1   2
M  END
>  <reaction>  (2) 
rmg_rxn_14002

>  <type>  (2) 
r2h

>  <mol_properties>  (2) 
{"0": {"label": "acceptor", "atom_type": "O2s"}, "1": {"label": "a_hydrogen", "atom_type": "H0"}}

>  <electro_map>  (2) 
{"1": {"R": null, "A": null, "D": null}, "0": {"R": 0.9599999917546908, "A": null, "D": null}}

$$$$

     RDKit          3D

 11  9  0  0  0  0  0  0  0  0999 V2000
   -1.6825    1.7750    1.5174 O   0  0  0  0  0 15  0  0  0  0  0  0
    0.5543    0.7904    0.8749 C   0  0  0  0  0  0  0  0  0  0  0  0
    0.5609   -0.2600    0.1498 C   0  0  0  0  0  0  0  0  0  0  0  0
    0.4900   -1.3351   -0.6019 C   0  0  0  0  0  0  0  0  0  0  0  0
    0.4630   -1.3239   -2.0980 C   0  0  0  0  0  0  0  0  0  0  0  0
   -0.5377    1.2573    1.1829 H   0  0  0  0  0  0  0  0  0  0  0  0
    1.3715    1.3665    1.2857 H   0  0  0  0  0  0  0  0  0  0  0  0
    0.4599   -2.3005   -0.1047 H   0  0  0  0  0  0  0  0  0  0  0  0
    1.3103   -1.8852   -2.4990 H   0  0  0  0  0  0  0  0  0  0  0  0
    0.4972   -0.3088   -2.4892 H   0  0  0  0  0  0  0  0  0  0  0  0
   -0.4456   -1.8098   -2.4618 H   0  0  0  0  0  0  0  0  0  0  0  0
  2  3  2  0
  2  6  1  0
  2  7  1  0
  3  4  2  0
  4  5  1  0
  4  8  1  0
  5  9  1  0
  5 10  1  0
  5 11  1  0
M  END
>  <reaction>  (3) 
rmg_rxn_14002

>  <type>  (3) 
ts

>  <mol_properties>  (3) 
{"0": {"label": "*3", "atom_type": "O2s"}, "1": {"label": "*1", "atom_type": "Cd"}, "2": {"label": "*0", "atom_type": "Cdd"}, "5": {"label": "*2", "atom_type": "H0"}}

$$$$
