
     RDKit          3D

 10  9  0  0  0  0  0  0  0  0999 V2000
   -1.1985    1.3999   -0.4258 C   0  0  0  0  0  0  0  0  0  0  0  0
   -0.3384    0.5874    0.0672 C   0  0  0  0  0  0  0  0  0  0  0  0
    0.4547   -0.3185    0.5874 C   0  0  0  0  0  0  0  0  0  0  0  0
    1.0168   -1.4850   -0.1699 C   0  0  0  0  0  0  0  0  0  0  0  0
   -2.2364    1.1107   -0.3413 H   0  0  0  0  0  0  0  0  0  0  0  0
   -1.0325    2.3408   -0.9308 H   0  0  0  0  0  0  0  0  0  0  0  0
    0.7342   -0.2157    1.6320 H   0  0  0  0  0  0  0  0  0  0  0  0
    0.6817   -1.4799   -1.2063 H   0  0  0  0  0  0  0  0  0  0  0  0
    0.7053   -2.4269    0.2893 H   0  0  0  0  0  0  0  0  0  0  0  0
    2.1093   -1.4664   -0.1595 H   0  0  0  0  0  0  0  0  0  0  0  0
  1  2  2  0
  1  5  1  0
  1  6  1  0
  2  3  2  0
  3  4  1  0
  3  7  1  0
  4  8  1  0
  4  9  1  0
  4 10  1  0
M  END
>  <reaction>  (1) 
rmg_rxn_14013

>  <type>  (1) 
r1h

>  <mol_properties>  (1) 
{"0": {"label": "donator", "atom_type": "Cd"}, "4": {"label": "d_hydrogen", "atom_type": "H0"}}

>  <electro_map>  (1) 
{"4": {"R": null, "A": null, "D": null}, "0": {"R": 1.0806665180232868, "A": null, "D": null}, "1": {"R": 1.2818028257558183, "A": 116.40375324088718, "D": null}, "2": {"R": 1.311601831020486, "A": 146.21666521165216, "D": 181.26223578410048}, "3": {"R": 1.500031629864678, "A": 124.29886703158827, "D": 81.22881100079243}, "5": {"R": 4.406332461620333, "A": 40.331743727331315, "D": 13.520253195229637}, "6": {"R": 4.028019520019995, "A": 30.124817695786156, "D": 6.710226474236783}, "7": {"R": 3.107524071720643, "A": 70.71159321844898, "D": 357.72471323921985}, "8": {"R": 1.7704086991356254, "A": 56.34377759124681, "D": 207.03984600391746}, "9": {"R": 1.7593128498273138, "A": 60.20246732260946, "D": 292.6337664032337}}

$$$$

     RDKit          3D

 10  9  0  0  0  0  0  0  0  0999 V2000
   -0.2335    1.2774   -0.1140 C   0  0  0  0  0  3  0  0  0  0  0  0
   -0.1026   -0.0283    0.5568 C   0  0  0  0  0  0  0  0  0  0  0  0
    0.2804   -1.1648   -0.4040 C   0  0  0  0  0  0  0  0  0  0  0  0
   -1.1103    1.7094   -0.5815 H   0  0  0  0  0  0  0  0  0  0  0  0
    0.6703    0.0443    1.3304 H   0  0  0  0  0  0  0  0  0  0  0  0
   -1.0371   -0.2798    1.0712 H   0  0  0  0  0  0  0  0  0  0  0  0
    0.3843   -2.1072    0.1373 H   0  0  0  0  0  0  0  0  0  0  0  0
    1.2301   -0.9430   -0.8929 H   0  0  0  0  0  0  0  0  0  0  0  0
   -0.4773   -1.2958   -1.1780 H   0  0  0  0  0  0  0  0  0  0  0  0
    0.7300    1.7383   -0.2971 H   0  0  0  0  0  0  0  0  0  0  0  0
  1  2  1  0
  1  4  1  0
  1 10  1  0
  2  3  1  0
  2  5  1  0
  2  6  1  0
  3  7  1  0
  3  8  1  0
  3  9  1  0
M  RAD  1   1   2
M  END
>  <reaction>  (2) 
rmg_rxn_14013

>  <type>  (2) 
r2h

>  <mol_properties>  (2) 
{"0": {"label": "acceptor", "atom_type": "Cs"}, "9": {"label": "a_hydrogen", "atom_type": "H0"}}

>  <electro_map>  (2) 
{"9": {"R": null, "A": null, "D": null}, "0": {"R": 1.0835849885373194, "A": null, "D": null}, "1": {"R": 1.4737961301305775, "A": 112.01263276327293, "D": null}, "2": {"R": 1.536663451215534, "A": 105.37393005071546, "D": 110.46739518356591}, "3": {"R": 3.197898210271371, "A": 42.4092507581924, "D": 336.8282343109012}, "4": {"R": 3.09820251651066, "A": 39.892494545024405, "D": 17.873357475938228}, "5": {"R": 1.7571786373429839, "A": 56.60813554131867, "D": 287.0808950555333}, "6": {"R": 2.4963853453810083, "A": 68.71024921898726, "D": 111.88575117954976}, "7": {"R": 1.769802384309459, "A": 90.47720560167538, "D": 302.2258838556326}, "8": {"R": 1.766654802978316, "A": 60.044718850467824, "D": 293.07343537301153}}

$$$$

     RDKit          3D

 19 17  0  0  0  0  0  0  0  0999 V2000
   -2.1302    0.8253   -0.1235 C   0  0  0  0  0  2  0  0  0  0  0  0
   -1.9993   -0.4804    0.5473 C   0  0  0  0  0  0  0  0  0  0  0  0
   -1.6163   -1.6168   -0.4135 C   0  0  0  0  0  0  0  0  0  0  0  0
   -3.0071    1.2574   -0.5910 H   0  0  0  0  0  0  0  0  0  0  0  0
   -1.2264   -0.4078    1.3209 H   0  0  0  0  0  0  0  0  0  0  0  0
   -2.9339   -0.7319    1.0617 H   0  0  0  0  0  0  0  0  0  0  0  0
   -1.5124   -2.5593    0.1278 H   0  0  0  0  0  0  0  0  0  0  0  0
   -0.6667   -1.3950   -0.9024 H   0  0  0  0  0  0  0  0  0  0  0  0
   -2.3741   -1.7479   -1.1875 H   0  0  0  0  0  0  0  0  0  0  0  0
    0.3255    1.7565   -0.4577 C   0  0  0  0  0  0  0  0  0  0  0  0
    1.1856    0.9440    0.0353 C   0  0  0  0  0  0  0  0  0  0  0  0
    1.9787    0.0381    0.5555 C   0  0  0  0  0  0  0  0  0  0  0  0
    2.5408   -1.1284   -0.2018 C   0  0  0  0  0  0  0  0  0  0  0  0
   -0.8941    1.4167   -0.3584 H   0  0  0  0  0  0  0  0  0  0  0  0
    0.4915    2.6974   -0.9627 H   0  0  0  0  0  0  0  0  0  0  0  0
    2.2583    0.1409    1.6001 H   0  0  0  0  0  0  0  0  0  0  0  0
    2.2058   -1.1232   -1.2382 H   0  0  0  0  0  0  0  0  0  0  0  0
    2.2294   -2.0703    0.2574 H   0  0  0  0  0  0  0  0  0  0  0  0
    3.6333   -1.1098   -0.1914 H   0  0  0  0  0  0  0  0  0  0  0  0
  1  2  1  0
  1  4  1  0
  2  3  1  0
  2  5  1  0
  2  6  1  0
  3  7  1  0
  3  8  1  0
  3  9  1  0
 10 11  2  0
 10 14  1  0
 10 15  1  0
 11 12  2  0
 12 13  1  0
 12 16  1  0
 13 17  1  0
 13 18  1  0
 13 19  1  0
M  RAD  1   1   3
M  END
>  <reaction>  (3) 
rmg_rxn_14013

>  <type>  (3) 
ts

>  <mol_properties>  (3) 
{"0": {"label": "*3", "atom_type": "Cs"}, "1": {"label": "*4", "atom_type": "Cs"}, "9": {"label": "*1", "atom_type": "Cd"}, "10": {"label": "*0", "atom_type": "Cdd"}, "13": {"label": "*2", "atom_type": "H0"}}

$$$$
