
     RDKit          3D

 10  9  0  0  0  0  0  0  0  0999 V2000
   -0.6858    1.6003   -0.7330 C   0  0  0  0  0  0  0  0  0  0  0  0
   -0.0004    0.6021   -0.3195 C   0  0  0  0  0  0  0  0  0  0  0  0
    0.6777   -0.3867    0.2168 C   0  0  0  0  0  0  0  0  0  0  0  0
    0.0585   -1.6542    0.7276 C   0  0  0  0  0  0  0  0  0  0  0  0
   -0.9954    2.3323   -0.0011 H   0  0  0  0  0  0  0  0  0  0  0  0
   -1.0048    1.8427   -1.7364 H   0  0  0  0  0  0  0  0  0  0  0  0
    1.7578   -0.2927    0.2800 H   0  0  0  0  0  0  0  0  0  0  0  0
    0.4378   -2.5220    0.1821 H   0  0  0  0  0  0  0  0  0  0  0  0
   -1.0260   -1.6316    0.6251 H   0  0  0  0  0  0  0  0  0  0  0  0
    0.3013   -1.8069    1.7828 H   0  0  0  0  0  0  0  0  0  0  0  0
  1  2  2  0
  1  5  1  0
  1  6  1  0
  2  3  2  0
  3  4  1  0
  3  7  1  0
  4  8  1  0
  4  9  1  0
  4 10  1  0
M  END
>  <reaction>  (1) 
rmg_rxn_14054

>  <type>  (1) 
r1h

>  <mol_properties>  (1) 
{"0": {"label": "donator", "atom_type": "Cd"}, "4": {"label": "d_hydrogen", "atom_type": "H0"}}

>  <electro_map>  (1) 
{"4": {"R": null, "A": null, "D": null}, "0": {"R": 1.080460272126164, "A": null, "D": null}, "1": {"R": 1.2794740044657562, "A": 117.59072298793714, "D": null}, "2": {"R": 1.3134329976511354, "A": 146.542414738297, "D": 181.64221536249997}, "3": {"R": 1.5002847242336772, "A": 124.19098375327286, "D": 81.147868825715}, "5": {"R": 4.4079335560853545, "A": 40.45022505937419, "D": 13.247416440906557}, "6": {"R": 4.032060645162055, "A": 30.122446386819785, "D": 6.796557452415603}, "7": {"R": 2.5925993607700146, "A": 95.02960904544643, "D": 22.341367418729114}, "8": {"R": 1.7696065655105369, "A": 88.80032034700636, "D": 315.15866671148734}, "9": {"R": 1.7699753496641073, "A": 59.578483019645475, "D": 292.64539323173904}}

$$$$

     RDKit          3D

 15 14  0  0  0  0  0  0  0  0999 V2000
    0.0781    0.6112   -2.3357 H   0  0  0  0  0  0  0  0  0  0  0  0
   -0.2373    1.3375   -1.5906 C   0  0  0  0  0  0  0  0  0  0  0  0
   -1.1818    0.6348   -0.6548 C   0  0  0  0  0  0  0  0  0  0  0  0
   -0.5575   -0.5559    0.0476 C   0  0  0  0  0  0  0  0  0  0  0  0
    0.5439   -0.1199    0.8057 O   0  0  0  0  0  0  0  0  0  0  0  0
    1.2891   -1.1802    1.3348 C   0  0  0  0  0  0  0  0  0  0  0  0
    0.7136    1.6256   -1.1503 H   0  0  0  0  0  0  0  0  0  0  0  0
   -0.6814    2.1263   -2.1938 H   0  0  0  0  0  0  0  0  0  0  0  0
   -1.5379    1.3417    0.1045 H   0  0  0  0  0  0  0  0  0  0  0  0
   -2.0654    0.2873   -1.1972 H   0  0  0  0  0  0  0  0  0  0  0  0
   -1.2971   -1.0400    0.7018 H   0  0  0  0  0  0  0  0  0  0  0  0
   -0.2313   -1.2985   -0.6927 H   0  0  0  0  0  0  0  0  0  0  0  0
    1.7022   -1.8115    0.5370 H   0  0  0  0  0  0  0  0  0  0  0  0
    2.1094   -0.7531    1.9102 H   0  0  0  0  0  0  0  0  0  0  0  0
    0.6804   -1.8103    1.9978 H   0  0  0  0  0  0  0  0  0  0  0  0
  1  2  1  0
  2  3  1  0
  2  7  1  0
  2  8  1  0
  3  4  1  0
  3  9  1  0
  3 10  1  0
  4  5  1  0
  4 11  1  0
  4 12  1  0
  5  6  1  0
  6 13  1  0
  6 14  1  0
  6 15  1  0
M  END
>  <reaction>  (2) 
rmg_rxn_14054

>  <type>  (2) 
r2h

>  <mol_properties>  (2) 
{"0": {"label": "a_hydrogen", "atom_type": "H0"}, "1": {"label": "acceptor", "atom_type": "Cs"}}

>  <electro_map>  (2) 
{"0": {"R": null, "A": null, "D": null}, "1": {"R": 1.0872327366535295, "A": null, "D": null}, "2": {"R": 1.5038489392742784, "A": 107.24269892102873, "D": null}, "3": {"R": 1.5168594367097676, "A": 96.59900577947269, "D": 232.8429888695273}, "4": {"R": 1.4063774898806396, "A": 109.18358144336908, "D": 60.1456858825366}, "5": {"R": 1.3998193999015367, "A": 112.69410501475063, "D": 188.42911553176432}, "6": {"R": 3.7920277741457245, "A": 27.2560374073315, "D": 103.72576371368567}, "7": {"R": 1.8125966802659876, "A": 134.3029489029969, "D": 311.13762027381824}, "8": {"R": 2.5750679155300515, "A": 70.00505747892156, "D": 39.219371595546185}, "9": {"R": 1.756222289603246, "A": 67.75003938688255, "D": 245.3708955723178}, "10": {"R": 2.440906589494505, "A": 69.83979679517378, "D": 135.98395495895454}, "11": {"R": 1.7740808739919354, "A": 69.9275426365792, "D": 245.09145424263488}, "12": {"R": 2.348101023149769, "A": 96.59716178705143, "D": 152.1273210027785}, "13": {"R": 1.7809611303766844, "A": 117.53215475074961, "D": 313.68527117465516}, "14": {"R": 1.7797326434725587, "A": 60.08809939549955, "D": 69.02681559971637}}

$$$$

     RDKit          3D

 24 22  0  0  0  0  0  0  0  0999 V2000
    0.0587    0.4842   -2.3626 C   0  0  0  0  0  0  0  0  0  0  0  0
    0.7441   -0.5139   -1.9491 C   0  0  0  0  0  0  0  0  0  0  0  0
    1.4222   -1.5027   -1.4128 C   0  0  0  0  0  0  0  0  0  0  0  0
    0.8030   -2.7702   -0.9020 C   0  0  0  0  0  0  0  0  0  0  0  0
   -0.3164    1.3712   -1.4758 H   0  0  0  0  0  0  0  0  0  0  0  0
   -0.2603    0.7267   -3.3660 H   0  0  0  0  0  0  0  0  0  0  0  0
    2.5023   -1.4087   -1.3497 H   0  0  0  0  0  0  0  0  0  0  0  0
    1.1823   -3.6380   -1.4475 H   0  0  0  0  0  0  0  0  0  0  0  0
   -0.2815   -2.7476   -1.0046 H   0  0  0  0  0  0  0  0  0  0  0  0
    1.0458   -2.9229    0.1532 H   0  0  0  0  0  0  0  0  0  0  0  0
   -0.7136    2.2861   -0.5373 C   0  0  0  0  0  3  0  0  0  0  0  0
   -1.6581    1.5833    0.3985 C   0  0  0  0  0  0  0  0  0  0  0  0
   -1.0338    0.3927    1.1010 C   0  0  0  0  0  0  0  0  0  0  0  0
    0.0676    0.8287    1.8590 O   0  0  0  0  0  0  0  0  0  0  0  0
    0.8127   -0.2316    2.3882 C   0  0  0  0  0  0  0  0  0  0  0  0
    0.2373    2.5741   -0.0970 H   0  0  0  0  0  0  0  0  0  0  0  0
   -1.1577    3.0748   -1.1404 H   0  0  0  0  0  0  0  0  0  0  0  0
   -2.0143    2.2903    1.1578 H   0  0  0  0  0  0  0  0  0  0  0  0
   -2.5417    1.2358   -0.1438 H   0  0  0  0  0  0  0  0  0  0  0  0
   -1.7735   -0.0914    1.7552 H   0  0  0  0  0  0  0  0  0  0  0  0
   -0.7077   -0.3500    0.3607 H   0  0  0  0  0  0  0  0  0  0  0  0
    1.2258   -0.8629    1.5903 H   0  0  0  0  0  0  0  0  0  0  0  0
    1.6330    0.1955    2.9635 H   0  0  0  0  0  0  0  0  0  0  0  0
    0.2040   -0.8617    3.0512 H   0  0  0  0  0  0  0  0  0  0  0  0
  1  2  2  0
  1  5  1  0
  1  6  1  0
  2  3  2  0
  3  4  1  0
  3  7  1  0
  4  8  1  0
  4  9  1  0
  4 10  1  0
 11 12  1  0
 11 16  1  0
 11 17  1  0
 12 13  1  0
 12 18  1  0
 12 19  1  0
 13 14  1  0
 13 20  1  0
 13 21  1  0
 14 15  1  0
 15 22  1  0
 15 23  1  0
 15 24  1  0
M  RAD  1  11   2
M  END
>  <reaction>  (3) 
rmg_rxn_14054

>  <type>  (3) 
ts

>  <mol_properties>  (3) 
{"0": {"label": "*1", "atom_type": "Cd"}, "1": {"label": "*0", "atom_type": "Cdd"}, "4": {"label": "*2", "atom_type": "H0"}, "10": {"label": "*3", "atom_type": "Cs"}, "11": {"label": "*4", "atom_type": "Cs"}}

$$$$
