
     RDKit          3D

  9  8  0  0  0  0  0  0  0  0999 V2000
    0.3659    1.6355    0.5150 C   0  0  0  0  0  0  0  0  0  0  0  0
    0.4159    0.1525    0.7515 C   0  0  0  0  0  0  0  0  0  0  0  0
   -0.3073   -0.8441   -0.5861 S   0  0  0  0  0  0  0  0  0  0  0  0
   -0.6695    1.9741    0.5284 H   0  0  0  0  0  0  0  0  0  0  0  0
    0.7285    1.9453   -0.4632 H   0  0  0  0  0  0  0  0  0  0  0  0
    0.8082    2.2214    1.3213 H   0  0  0  0  0  0  0  0  0  0  0  0
   -0.0683   -0.1130    1.6918 H   0  0  0  0  0  0  0  0  0  0  0  0
    1.4518   -0.1916    0.8217 H   0  0  0  0  0  0  0  0  0  0  0  0
   -1.5693   -0.4260   -0.3918 H   0  0  0  0  0  0  0  0  0  0  0  0
  1  2  1  0
  1  4  1  0
  1  5  1  0
  1  6  1  0
  2  3  1  0
  2  7  1  0
  2  8  1  0
  3  9  1  0
M  END
>  <reaction>  (1) 
rmg_rxn_2761

>  <type>  (1) 
r1h

>  <mol_properties>  (1) 
{"0": {"label": "donator", "atom_type": "Cs"}, "3": {"label": "d_hydrogen", "atom_type": "H0"}}

>  <electro_map>  (1) 
{"3": {"R": null, "A": null, "D": null}, "0": {"R": 1.0894053134432167, "A": null, "D": null}, "1": {"R": 1.502497501212532, "A": 109.66270325164729, "D": null}, "2": {"R": 1.818057386518657, "A": 100.88652670876826, "D": 238.56202185898172}, "8": {"R": 1.343524115450708, "A": 95.54652773826626, "D": 293.0740765143677}, "4": {"R": 3.302770324547474, "A": 64.33028108275461, "D": 46.935992856493904}, "5": {"R": 1.8075013126141648, "A": 96.83392237829773, "D": 257.05758996153554}, "6": {"R": 2.520905349165149, "A": 89.3319140626665, "D": 23.777093533136377}, "7": {"R": 1.7533302635751016, "A": 70.55826555721995, "D": 60.6270847498456}}

$$$$

     RDKit          3D

 15 14  0  0  0  0  0  0  0  0999 V2000
    2.2857    1.3940    0.8117 H   0  0  0  0  0  0  0  0  0  0  0  0
    1.2950    1.8439    0.8252 C   0  0  0  0  0  0  0  0  0  0  0  0
    0.4372    1.1913   -0.2131 C   0  0  0  0  0  0  0  0  0  0  0  0
    0.0742   -0.0994    0.2195 O   0  0  0  0  0  0  0  0  0  0  0  0
   -0.7495   -0.7822   -0.6998 C   0  0  0  0  0  0  0  0  0  0  0  0
   -1.0869   -2.1421   -0.1348 C   0  0  0  0  0  0  0  0  0  0  0  0
    0.9337    1.7064    1.8423 H   0  0  0  0  0  0  0  0  0  0  0  0
    1.5171    2.8861    0.6040 H   0  0  0  0  0  0  0  0  0  0  0  0
    0.9718    1.1307   -1.1733 H   0  0  0  0  0  0  0  0  0  0  0  0
   -0.4737    1.7860   -0.3897 H   0  0  0  0  0  0  0  0  0  0  0  0
   -1.6627   -0.1990   -0.8815 H   0  0  0  0  0  0  0  0  0  0  0  0
   -0.2278   -0.8814   -1.6627 H   0  0  0  0  0  0  0  0  0  0  0  0
   -1.6137   -2.0416    0.8146 H   0  0  0  0  0  0  0  0  0  0  0  0
   -1.7246   -2.6900   -0.8300 H   0  0  0  0  0  0  0  0  0  0  0  0
   -0.1804   -2.7251    0.0340 H   0  0  0  0  0  0  0  0  0  0  0  0
  1  2  1  0
  2  3  1  0
  2  7  1  0
  2  8  1  0
  3  4  1  0
  3  9  1  0
  3 10  1  0
  4  5  1  0
  5  6  1  0
  5 11  1  0
  5 12  1  0
  6 13  1  0
  6 14  1  0
  6 15  1  0
M  END
>  <reaction>  (2) 
rmg_rxn_2761

>  <type>  (2) 
r2h

>  <mol_properties>  (2) 
{"0": {"label": "a_hydrogen", "atom_type": "H0"}, "1": {"label": "acceptor", "atom_type": "Cs"}}

>  <electro_map>  (2) 
{"0": {"R": null, "A": null, "D": null}, "1": {"R": 1.0882041383522623, "A": null, "D": null}, "2": {"R": 1.4965601261396493, "A": 109.45045839560312, "D": null}, "3": {"R": 1.408835852240114, "A": 99.41474345607513, "D": 246.3869412765353}, "4": {"R": 1.41061427743172, "A": 113.18943047084028, "D": 179.42964610339894}, "5": {"R": 1.51080034140355, "A": 108.80717485985272, "D": 180.49092589471778}, "6": {"R": 4.77523904571547, "A": 48.30883517525938, "D": 11.533368474299513}, "7": {"R": 1.8070649839452846, "A": 112.275109437213, "D": 343.90430789104937}, "8": {"R": 2.556941446743111, "A": 87.66493986375419, "D": 352.13095593311544}, "9": {"R": 1.7700546198030676, "A": 67.18450570522947, "D": 68.26101926091943}, "10": {"R": 2.365560041415097, "A": 90.44245378085557, "D": 205.66156359730903}, "11": {"R": 1.770500540784157, "A": 90.44974184376987, "D": 0.3119476083942551}, "12": {"R": 3.066588961266384, "A": 54.769259082339374, "D": 117.81755111217535}, "13": {"R": 1.771263840647526, "A": 54.31637210245035, "D": 104.26989094462134}, "14": {"R": 1.7697683684948717, "A": 59.95758169722993, "D": 66.13899545945097}}

$$$$

     RDKit          3D

 23 21  0  0  0  0  0  0  0  0999 V2000
    2.1482    1.0504    0.8383 C   0  0  0  0  0  0  0  0  0  0  0  0
    2.1983   -0.4325    1.0748 C   0  0  0  0  0  0  0  0  0  0  0  0
    1.4751   -1.4291   -0.2628 S   0  0  0  0  0  0  0  0  0  0  0  0
    0.8724    1.4677    0.8548 H   0  0  0  0  0  0  0  0  0  0  0  0
    2.5109    1.3603   -0.1399 H   0  0  0  0  0  0  0  0  0  0  0  0
    2.5906    1.6364    1.6446 H   0  0  0  0  0  0  0  0  0  0  0  0
    1.7141   -0.6980    2.0151 H   0  0  0  0  0  0  0  0  0  0  0  0
    3.2342   -0.7767    1.1450 H   0  0  0  0  0  0  0  0  0  0  0  0
    0.2131   -1.0111   -0.0685 H   0  0  0  0  0  0  0  0  0  0  0  0
   -0.3570    2.0259    0.8714 C   0  0  0  0  0  3  0  0  0  0  0  0
   -1.2148    1.3733   -0.1668 C   0  0  0  0  0  0  0  0  0  0  0  0
   -1.5777    0.0826    0.2658 O   0  0  0  0  0  0  0  0  0  0  0  0
   -2.4014   -0.6002   -0.6535 C   0  0  0  0  0  0  0  0  0  0  0  0
   -2.7389   -1.9601   -0.0885 C   0  0  0  0  0  0  0  0  0  0  0  0
   -0.7182    1.8884    1.8886 H   0  0  0  0  0  0  0  0  0  0  0  0
   -0.1348    3.0681    0.6503 H   0  0  0  0  0  0  0  0  0  0  0  0
   -0.6801    1.3127   -1.1271 H   0  0  0  0  0  0  0  0  0  0  0  0
   -2.1256    1.9680   -0.3434 H   0  0  0  0  0  0  0  0  0  0  0  0
   -3.3146   -0.0170   -0.8352 H   0  0  0  0  0  0  0  0  0  0  0  0
   -1.8798   -0.6994   -1.6164 H   0  0  0  0  0  0  0  0  0  0  0  0
   -3.2656   -1.8596    0.8609 H   0  0  0  0  0  0  0  0  0  0  0  0
   -3.3765   -2.5080   -0.7837 H   0  0  0  0  0  0  0  0  0  0  0  0
   -1.8324   -2.5431    0.0803 H   0  0  0  0  0  0  0  0  0  0  0  0
  1  2  1  0
  1  4  1  0
  1  5  1  0
  1  6  1  0
  2  3  1  0
  2  7  1  0
  2  8  1  0
  3  9  1  0
 10 11  1  0
 10 15  1  0
 10 16  1  0
 11 12  1  0
 11 17  1  0
 11 18  1  0
 12 13  1  0
 13 14  1  0
 13 19  1  0
 13 20  1  0
 14 21  1  0
 14 22  1  0
 14 23  1  0
M  RAD  1  10   2
M  END
>  <reaction>  (3) 
rmg_rxn_2761

>  <type>  (3) 
ts

>  <mol_properties>  (3) 
{"0": {"label": "*1", "atom_type": "Cs"}, "1": {"label": "*0", "atom_type": "Cs"}, "3": {"label": "*2", "atom_type": "H0"}, "9": {"label": "*3", "atom_type": "Cs"}, "10": {"label": "*4", "atom_type": "Cs"}}

$$$$
