
     RDKit          3D

 10  9  0  0  0  0  0  0  0  0999 V2000
   -1.2213    1.3715   -0.4408 C   0  0  0  0  0  0  0  0  0  0  0  0
   -0.3323    0.5949    0.0511 C   0  0  0  0  0  0  0  0  0  0  0  0
    0.4878   -0.2851    0.5808 C   0  0  0  0  0  0  0  0  0  0  0  0
    1.0079   -1.4931   -0.1401 C   0  0  0  0  0  0  0  0  0  0  0  0
   -2.2511    1.0904   -0.2759 H   0  0  0  0  0  0  0  0  0  0  0  0
   -1.1037    2.2833   -1.0078 H   0  0  0  0  0  0  0  0  0  0  0  0
    0.8206   -0.1263    1.6023 H   0  0  0  0  0  0  0  0  0  0  0  0
    0.6185   -1.5431   -1.1562 H   0  0  0  0  0  0  0  0  0  0  0  0
    0.7197   -2.4080    0.3843 H   0  0  0  0  0  0  0  0  0  0  0  0
    2.0996   -1.4792   -0.1891 H   0  0  0  0  0  0  0  0  0  0  0  0
  1  2  2  0
  1  5  1  0
  1  6  1  0
  2  3  2  0
  3  4  1  0
  3  7  1  0
  4  8  1  0
  4  9  1  0
  4 10  1  0
M  END
>  <reaction>  (1) 
rmg_rxn_14043

>  <type>  (1) 
r1h

>  <mol_properties>  (1) 
{"0": {"label": "donator", "atom_type": "Cd"}, "4": {"label": "d_hydrogen", "atom_type": "H0"}}

>  <electro_map>  (1) 
{"4": {"R": null, "A": null, "D": null}, "0": {"R": 1.080170777470244, "A": null, "D": null}, "1": {"R": 1.2788297542934746, "A": 116.48508073033135, "D": null}, "2": {"R": 1.3143017527241394, "A": 145.77680330548412, "D": 181.70400138490078}, "3": {"R": 1.4998385024552696, "A": 124.18780444885257, "D": 79.85736134409088}, "5": {"R": 4.412795163405481, "A": 40.475364512950904, "D": 12.92588866614868}, "6": {"R": 4.040034931522846, "A": 30.074901307014557, "D": 6.397429362048844}, "7": {"R": 3.1077088152206596, "A": 70.57691685831715, "D": 357.80550159055315}, "8": {"R": 1.7696161986585706, "A": 56.38343250166648, "D": 207.4303247763986}, "9": {"R": 1.759452766610502, "A": 60.205513551804486, "D": 292.577829044719}}

$$$$

     RDKit          3D

 11 10  0  0  0  0  0  0  0  0999 V2000
   -0.3320    1.2404    0.0569 C   0  0  0  0  0  0  0  0  0  0  0  0
   -0.0680   -0.1552    0.5479 C   0  0  0  0  0  0  0  0  0  0  0  0
    0.3584   -1.1084   -0.5618 C   0  0  0  0  0  0  0  0  0  0  0  0
   -0.8875    1.3162   -0.8769 H   0  0  0  0  0  0  0  0  0  0  0  0
   -0.6732    1.9500    0.8076 H   0  0  0  0  0  0  0  0  0  0  0  0
    0.7067   -0.1214    1.3208 H   0  0  0  0  0  0  0  0  0  0  0  0
   -0.9670   -0.5445    1.0415 H   0  0  0  0  0  0  0  0  0  0  0  0
   -0.4215   -1.1958   -1.3218 H   0  0  0  0  0  0  0  0  0  0  0  0
    1.2646   -0.7483   -1.0519 H   0  0  0  0  0  0  0  0  0  0  0  0
    0.5596   -2.1068   -0.1706 H   0  0  0  0  0  0  0  0  0  0  0  0
    0.6548    1.6249   -0.1948 H   0  0  0  0  0  0  0  0  0  0  0  0
  1  2  1  0
  1  4  1  0
  1  5  1  0
  1 11  1  0
  2  3  1  0
  2  6  1  0
  2  7  1  0
  3  8  1  0
  3  9  1  0
  3 10  1  0
M  END
>  <reaction>  (2) 
rmg_rxn_14043

>  <type>  (2) 
r2h

>  <mol_properties>  (2) 
{"0": {"label": "acceptor", "atom_type": "Cs"}, "10": {"label": "a_hydrogen", "atom_type": "H0"}}

>  <electro_map>  (2) 
{"10": {"R": null, "A": null, "D": null}, "0": {"R": 1.0884976294460602, "A": null, "D": null}, "1": {"R": 1.5028190348977488, "A": 104.14186853877764, "D": null}, "2": {"R": 1.5237713570228562, "A": 100.35960562083623, "D": 118.1390828234302}, "3": {"R": 2.7440665998689977, "A": 53.40509037269822, "D": 342.4039286857164}, "4": {"R": 1.8124473827222458, "A": 98.54624397464801, "D": 12.900937904335509}, "5": {"R": 2.5413200788315726, "A": 88.10081620635702, "D": 4.739178357156226}, "6": {"R": 1.7488425377990384, "A": 69.22371910565631, "D": 292.5221404699002}, "7": {"R": 2.5114033027821026, "A": 90.29622390318904, "D": 98.67945647885188}, "8": {"R": 1.7652611146519435, "A": 89.87639198371959, "D": 359.2428308998965}, "9": {"R": 1.766151957237391, "A": 60.00183793026889, "D": 65.5878483917841}}

$$$$

     RDKit          3D

 20 18  0  0  0  0  0  0  0  0999 V2000
   -2.2258    0.8660    0.0758 C   0  0  0  0  0  3  0  0  0  0  0  0
   -1.9619   -0.5296    0.5667 C   0  0  0  0  0  0  0  0  0  0  0  0
   -1.5354   -1.4828   -0.5430 C   0  0  0  0  0  0  0  0  0  0  0  0
   -2.7813    0.9418   -0.8580 H   0  0  0  0  0  0  0  0  0  0  0  0
   -2.5671    1.5756    0.8264 H   0  0  0  0  0  0  0  0  0  0  0  0
   -1.1871   -0.4958    1.3397 H   0  0  0  0  0  0  0  0  0  0  0  0
   -2.8609   -0.9189    1.0604 H   0  0  0  0  0  0  0  0  0  0  0  0
   -2.3154   -1.5702   -1.3030 H   0  0  0  0  0  0  0  0  0  0  0  0
   -0.6292   -1.1227   -1.0331 H   0  0  0  0  0  0  0  0  0  0  0  0
   -1.3342   -2.4812   -0.1517 H   0  0  0  0  0  0  0  0  0  0  0  0
    0.2636    1.6908   -0.4411 C   0  0  0  0  0  0  0  0  0  0  0  0
    1.1526    0.9142    0.0509 C   0  0  0  0  0  0  0  0  0  0  0  0
    1.9727    0.0343    0.5805 C   0  0  0  0  0  0  0  0  0  0  0  0
    2.4928   -1.1737   -0.1404 C   0  0  0  0  0  0  0  0  0  0  0  0
   -0.9811    1.3510   -0.2417 H   0  0  0  0  0  0  0  0  0  0  0  0
    0.3812    2.6027   -1.0081 H   0  0  0  0  0  0  0  0  0  0  0  0
    2.3055    0.1931    1.6021 H   0  0  0  0  0  0  0  0  0  0  0  0
    2.1034   -1.2238   -1.1565 H   0  0  0  0  0  0  0  0  0  0  0  0
    2.2046   -2.0887    0.3841 H   0  0  0  0  0  0  0  0  0  0  0  0
    3.5845   -1.1599   -0.1894 H   0  0  0  0  0  0  0  0  0  0  0  0
  1  2  1  0
  1  4  1  0
  1  5  1  0
  2  3  1  0
  2  6  1  0
  2  7  1  0
  3  8  1  0
  3  9  1  0
  3 10  1  0
 11 12  2  0
 11 15  1  0
 11 16  1  0
 12 13  2  0
 13 14  1  0
 13 17  1  0
 14 18  1  0
 14 19  1  0
 14 20  1  0
M  RAD  1   1   2
M  END
>  <reaction>  (3) 
rmg_rxn_14043

>  <type>  (3) 
ts

>  <mol_properties>  (3) 
{"0": {"label": "*3", "atom_type": "Cs"}, "1": {"label": "*4", "atom_type": "Cs"}, "10": {"label": "*1", "atom_type": "Cd"}, "11": {"label": "*0", "atom_type": "Cdd"}, "14": {"label": "*2", "atom_type": "H0"}}

$$$$
