
     RDKit          3D

 13 12  0  0  0  0  0  0  0  0999 V2000
    1.5171   -0.1726   -0.7818 N   0  0  0  0  0  2  0  0  0  0  0  0
    1.1696    0.3132    0.3748 N   0  0  0  0  0  0  0  0  0  0  0  0
    0.0150    0.1956    0.9820 C   0  0  0  0  0  3  0  0  0  0  0  0
   -1.0906   -0.5672    0.3479 C   0  0  0  0  0  0  0  0  0  0  0  0
   -1.7459    0.1704   -0.8259 C   0  0  0  0  0  0  0  0  0  0  0  0
    2.5177    0.0986   -0.8649 H   0  0  0  0  0  0  0  0  0  0  0  0
    1.8746    0.8514    0.8801 H   0  0  0  0  0  0  0  0  0  0  0  0
   -0.0710    0.6985    1.9329 H   0  0  0  0  0  0  0  0  0  0  0  0
   -1.8387   -0.7994    1.1075 H   0  0  0  0  0  0  0  0  0  0  0  0
   -0.6861   -1.5178   -0.0189 H   0  0  0  0  0  0  0  0  0  0  0  0
   -2.5235   -0.4463   -1.2795 H   0  0  0  0  0  0  0  0  0  0  0  0
   -1.0034    0.3994   -1.5907 H   0  0  0  0  0  0  0  0  0  0  0  0
   -2.2015    1.1047   -0.4938 H   0  0  0  0  0  0  0  0  0  0  0  0
  1  2  1  0
  1  6  1  0
  2  3  1  0
  2  7  1  0
  3  4  1  0
  3  8  1  0
  4  5  1  0
  4  9  1  0
  4 10  1  0
  5 11  1  0
  5 12  1  0
  5 13  1  0
M  CHG  2   1  -1   3   1
M  END
>  <reaction>  (1) 
rmg_rxn_2501

>  <type>  (1) 
r1h

>  <mol_properties>  (1) 
{"0": {"label": "donator", "atom_type": "N1sc"}, "5": {"label": "d_hydrogen", "atom_type": "H0"}}

>  <electro_map>  (1) 
{"5": {"R": null, "A": null, "D": null}, "0": {"R": 1.040000033653699, "A": null, "D": null}, "1": {"R": 1.301726951147447, "A": 103.32920344269696, "D": null}, "2": {"R": 1.3098119275298927, "A": 161.02554458042593, "D": 7.809175812999056}, "3": {"R": 1.485371144985149, "A": 120.28384717070062, "D": 359.9945924703467}, "4": {"R": 1.5334082205079753, "A": 113.4409188902401, "D": 286.26655567723105}, "6": {"R": 4.0598130950751115, "A": 51.53050072355266, "D": 18.34504073867239}, "7": {"R": 2.2174260662358987, "A": 53.52244695322283, "D": 308.44905510891044}, "8": {"R": 2.4595785597204998, "A": 120.88084766112745, "D": 32.973320591061395}, "9": {"R": 1.7644696802186455, "A": 89.58386438227424, "D": 10.289203150994606}, "10": {"R": 2.4724978235001815, "A": 70.34288344876092, "D": 242.22929237171016}, "11": {"R": 1.7671324784594933, "A": 70.00073830080053, "D": 114.31766679764227}, "12": {"R": 1.7709499844295644, "A": 59.96923266178186, "D": 256.61117368893775}}

$$$$

     RDKit          3D

 14 13  0  0  0  0  0  0  0  0999 V2000
   -1.3013   -0.0226   -0.6774 H   0  0  0  0  0  0  0  0  0  0  0  0
   -0.3368    1.8437   -0.5691 C   0  0  0  0  0  0  0  0  0  0  0  0
   -0.2747    0.3390   -0.5907 C   0  0  0  0  0  0  0  0  0  0  0  0
    0.3360   -0.3263    0.6176 C   0  0  0  0  0  0  0  0  0  0  0  0
    0.3067   -1.8475    0.5482 C   0  0  0  0  0  0  0  0  0  0  0  0
   -0.8958    2.2316   -1.4213 H   0  0  0  0  0  0  0  0  0  0  0  0
    0.6669    2.2831   -0.5978 H   0  0  0  0  0  0  0  0  0  0  0  0
   -0.8148    2.2166    0.3426 H   0  0  0  0  0  0  0  0  0  0  0  0
    0.1196   -0.0560   -1.5291 H   0  0  0  0  0  0  0  0  0  0  0  0
   -0.1795    0.0113    1.5262 H   0  0  0  0  0  0  0  0  0  0  0  0
    1.3721    0.0199    0.7338 H   0  0  0  0  0  0  0  0  0  0  0  0
    0.7438   -2.2944    1.4422 H   0  0  0  0  0  0  0  0  0  0  0  0
   -0.7183   -2.2080    0.4459 H   0  0  0  0  0  0  0  0  0  0  0  0
    0.8707   -2.2051   -0.3160 H   0  0  0  0  0  0  0  0  0  0  0  0
  1  3  1  0
  2  3  1  0
  2  6  1  0
  2  7  1  0
  2  8  1  0
  3  4  1  0
  3  9  1  0
  4  5  1  0
  4 10  1  0
  4 11  1  0
  5 12  1  0
  5 13  1  0
  5 14  1  0
M  END
>  <reaction>  (2) 
rmg_rxn_2501

>  <type>  (2) 
r2h

>  <mol_properties>  (2) 
{"0": {"label": "a_hydrogen", "atom_type": "H0"}, "2": {"label": "acceptor", "atom_type": "Cs"}}

>  <electro_map>  (2) 
{"0": {"R": null, "A": null, "D": null}, "2": {"R": 1.0918570895983322, "A": null, "D": null}, "3": {"R": 1.508487609574688, "A": 107.34730359295459, "D": null}, "1": {"R": 2.563159950685929, "A": 52.422622226144476, "D": 35.11554225507135}, "4": {"R": 3.909880880897475, "A": 12.901801601693963, "D": 4.100616618706145}, "5": {"R": 4.686542057064752, "A": 10.259929769894704, "D": 175.01174228419293}, "6": {"R": 1.7671547398452392, "A": 66.5872452291923, "D": 31.186133541132826}, "7": {"R": 1.7562219502119805, "A": 60.154681835276975, "D": 287.49217178938306}, "8": {"R": 3.088946379744795, "A": 56.506589432694234, "D": 64.54054081972785}, "9": {"R": 3.0706366059751504, "A": 49.56941005576106, "D": 113.8096341342828}, "10": {"R": 1.742181410158744, "A": 57.37448150581051, "D": 252.59784370039006}, "11": {"R": 2.5004821312442678, "A": 69.0763898954973, "D": 263.17480738484943}, "12": {"R": 1.7714376054370826, "A": 90.16677923007104, "D": 59.216728928231014}, "13": {"R": 1.7622247548637668, "A": 59.92973042763065, "D": 66.20826544133071}}

$$$$

     RDKit          3D

 26 24  0  0  0  0  0  0  0  0999 V2000
   -0.3697   -0.3383   -0.7267 N   0  0  0  0  0  2  0  0  0  0  0  0
   -0.7173    0.1475    0.4299 N   0  0  0  0  0  0  0  0  0  0  0  0
   -1.8719    0.0300    1.0371 C   0  0  0  0  0  3  0  0  0  0  0  0
   -2.9774   -0.7329    0.4030 C   0  0  0  0  0  0  0  0  0  0  0  0
   -3.6327    0.0047   -0.7708 C   0  0  0  0  0  0  0  0  0  0  0  0
    0.8290   -0.0134   -0.8262 H   0  0  0  0  0  0  0  0  0  0  0  0
   -0.0123    0.6857    0.9353 H   0  0  0  0  0  0  0  0  0  0  0  0
   -1.9579    0.5328    1.9880 H   0  0  0  0  0  0  0  0  0  0  0  0
   -3.7255   -0.9651    1.1627 H   0  0  0  0  0  0  0  0  0  0  0  0
   -2.5730   -1.6835    0.0363 H   0  0  0  0  0  0  0  0  0  0  0  0
   -4.4103   -0.6120   -1.2243 H   0  0  0  0  0  0  0  0  0  0  0  0
   -2.8902    0.2338   -1.5356 H   0  0  0  0  0  0  0  0  0  0  0  0
   -4.0884    0.9391   -0.4386 H   0  0  0  0  0  0  0  0  0  0  0  0
    2.0292    1.9359   -0.6981 C   0  0  0  0  0  0  0  0  0  0  0  0
    2.0913    0.4312   -0.7197 C   0  0  0  0  0  3  0  0  0  0  0  0
    2.7020   -0.2341    0.4886 C   0  0  0  0  0  0  0  0  0  0  0  0
    2.6727   -1.7552    0.4192 C   0  0  0  0  0  0  0  0  0  0  0  0
    1.4702    2.3238   -1.5503 H   0  0  0  0  0  0  0  0  0  0  0  0
    3.0329    2.3754   -0.7268 H   0  0  0  0  0  0  0  0  0  0  0  0
    1.5512    2.3089    0.2136 H   0  0  0  0  0  0  0  0  0  0  0  0
    2.4856    0.0362   -1.6581 H   0  0  0  0  0  0  0  0  0  0  0  0
    2.1865    0.1036    1.3972 H   0  0  0  0  0  0  0  0  0  0  0  0
    3.7381    0.1121    0.6049 H   0  0  0  0  0  0  0  0  0  0  0  0
    3.1098   -2.2022    1.3132 H   0  0  0  0  0  0  0  0  0  0  0  0
    1.6477   -2.1158    0.3169 H   0  0  0  0  0  0  0  0  0  0  0  0
    3.2367   -2.1128   -0.4449 H   0  0  0  0  0  0  0  0  0  0  0  0
  1  2  1  0
  1  6  1  0
  2  3  1  0
  2  7  1  0
  3  4  1  0
  3  8  1  0
  4  5  1  0
  4  9  1  0
  4 10  1  0
  5 11  1  0
  5 12  1  0
  5 13  1  0
 14 15  1  0
 14 18  1  0
 14 19  1  0
 14 20  1  0
 15 16  1  0
 15 21  1  0
 16 17  1  0
 16 22  1  0
 16 23  1  0
 17 24  1  0
 17 25  1  0
 17 26  1  0
M  CHG  2   1  -1   3   1
M  RAD  1  15   2
M  END
>  <reaction>  (3) 
rmg_rxn_2501

>  <type>  (3) 
ts

>  <mol_properties>  (3) 
{"0": {"label": "*1", "atom_type": "N1sc"}, "1": {"label": "*0", "atom_type": "N3s"}, "5": {"label": "*2", "atom_type": "H0"}, "14": {"label": "*3", "atom_type": "Cs"}, "15": {"label": "*4", "atom_type": "Cs"}}

$$$$
