
     RDKit          3D

  9  8  0  0  0  0  0  0  0  0999 V2000
    1.1540   -0.7613    0.3553 O   0  0  0  0  0  1  0  0  0  0  0  0
   -0.1027   -0.7329    0.4001 N   0  0  0  0  0  0  0  0  0  0  0  0
   -0.8618    0.1902   -0.0613 C   0  0  0  0  0  3  0  0  0  0  0  0
   -0.3109    1.3950   -0.7374 C   0  0  0  0  0  0  0  0  0  0  0  0
   -0.4678   -1.5826    0.8758 H   0  0  0  0  0  0  0  0  0  0  0  0
   -1.9215    0.0278    0.0769 H   0  0  0  0  0  0  0  0  0  0  0  0
    0.2836    1.1054   -1.6075 H   0  0  0  0  0  0  0  0  0  0  0  0
   -1.1095    2.0604   -1.0580 H   0  0  0  0  0  0  0  0  0  0  0  0
    0.3575    1.9377   -0.0641 H   0  0  0  0  0  0  0  0  0  0  0  0
  1  2  1  0
  2  3  1  0
  2  5  1  0
  3  4  1  0
  3  6  1  0
  4  7  1  0
  4  8  1  0
  4  9  1  0
M  CHG  2   1  -1   3   1
M  END
>  <reaction>  (1) 
rmg_rxn_2002

>  <type>  (1) 
r1h

>  <mol_properties>  (1) 
{"1": {"label": "donator", "atom_type": "N3s"}, "4": {"label": "d_hydrogen", "atom_type": "H0"}}

>  <electro_map>  (1) 
{"4": {"R": null, "A": null, "D": null}, "1": {"R": 1.0399999190293794, "A": null, "D": null}, "0": {"R": 1.2578249628622427, "A": 110.39967127431443, "D": null}, "2": {"R": 2.267644363737, "A": 58.02327960320636, "D": 5.3242901765422455e-05}, "3": {"R": 1.487320397056726, "A": 95.40408799683861, "D": 180.00006580152632}, "5": {"R": 2.264122194881383, "A": 23.638548068775943, "D": 179.99997021565636}, "6": {"R": 2.9767398330849324, "A": 18.367409362586375, "D": 290.67927856665676}, "7": {"R": 1.7762010191486772, "A": 55.84384676638523, "D": 316.23924429293794}, "8": {"R": 1.7762010191486772, "A": 59.21667295922505, "D": 88.61312937892235}}

$$$$

     RDKit          3D

  9  8  0  0  0  0  0  0  0  0999 V2000
    1.7672   -0.6624    0.2726 C   0  0  0  0  0  0  0  0  0  0  0  0
    0.2823   -0.5504    0.2833 C   0  0  0  0  0  0  0  0  0  0  0  0
   -0.2900    0.4548   -0.2314 N   0  0  0  0  0  0  0  0  0  0  0  0
   -1.5681    0.6206   -0.2597 O   0  0  0  0  0  0  0  0  0  0  0  0
    2.1553   -0.7310    1.2916 H   0  0  0  0  0  0  0  0  0  0  0  0
    2.0813   -1.5655   -0.2559 H   0  0  0  0  0  0  0  0  0  0  0  0
    2.2052    0.2060   -0.2166 H   0  0  0  0  0  0  0  0  0  0  0  0
   -0.3259   -1.3339    0.7349 H   0  0  0  0  0  0  0  0  0  0  0  0
   -1.5951    1.4658   -0.7141 H   0  0  0  0  0  0  0  0  0  0  0  0
  1  2  1  0
  1  5  1  0
  1  6  1  0
  1  7  1  0
  2  3  2  3
  2  8  1  0
  3  4  1  0
  4  9  1  0
M  END
>  <reaction>  (2) 
rmg_rxn_2002

>  <type>  (2) 
r2h

>  <mol_properties>  (2) 
{"3": {"label": "acceptor", "atom_type": "O2s"}, "8": {"label": "a_hydrogen", "atom_type": "H0"}}

>  <electro_map>  (2) 
{"8": {"R": null, "A": null, "D": null}, "3": {"R": 0.9600000227987764, "A": null, "D": null}, "2": {"R": 1.2891678275801979, "A": 98.71434163624629, "D": null}, "1": {"R": 1.266017523284214, "A": 157.48545463463932, "D": 3.3796929312674346e-05}, "0": {"R": 1.4891790450481261, "A": 120.49949572471681, "D": 179.99998207075342}, "4": {"R": 1.0925292695967175, "A": 110.62594556088953, "D": 120.62530185184322}, "5": {"R": 1.7597524830859865, "A": 36.35518764608304, "D": 120.75464827449194}, "6": {"R": 1.7762047775707717, "A": 60.3059562377885, "D": 36.09188809925884}, "7": {"R": 3.1116973025736674, "A": 57.07758653446331, "D": 291.66805062829326}}

$$$$

     RDKit          3D

 17 15  0  0  0  0  0  0  0  0999 V2000
    2.4035   -2.3100    1.6106 C   0  0  0  0  0  0  0  0  0  0  0  0
    0.9186   -2.1980    1.6213 C   0  0  0  0  0  3  0  0  0  0  0  0
    0.3463   -1.1928    1.1066 N   0  0  0  0  0  2  0  0  0  0  0  0
   -0.9319   -1.0269    1.0783 O   0  0  0  0  0  0  0  0  0  0  0  0
    2.7916   -2.3785    2.6296 H   0  0  0  0  0  0  0  0  0  0  0  0
    2.7176   -3.2131    1.0820 H   0  0  0  0  0  0  0  0  0  0  0  0
    2.8415   -1.4416    1.1214 H   0  0  0  0  0  0  0  0  0  0  0  0
    0.3104   -2.9815    2.0728 H   0  0  0  0  0  0  0  0  0  0  0  0
    0.7233    1.0266   -0.1083 O   0  0  0  0  0  1  0  0  0  0  0  0
   -0.5334    1.0550   -0.0635 N   0  0  0  0  0  2  0  0  0  0  0  0
   -1.2925    1.9781   -0.5249 C   0  0  0  0  0  3  0  0  0  0  0  0
   -0.7416    3.1829   -1.2010 C   0  0  0  0  0  0  0  0  0  0  0  0
   -0.9662    0.0477    0.5004 H   0  0  0  0  0  0  0  0  0  0  0  0
   -2.3522    1.8158   -0.3867 H   0  0  0  0  0  0  0  0  0  0  0  0
   -0.1471    2.8933   -2.0711 H   0  0  0  0  0  0  0  0  0  0  0  0
   -1.5402    3.8483   -1.5216 H   0  0  0  0  0  0  0  0  0  0  0  0
   -0.0732    3.7256   -0.5277 H   0  0  0  0  0  0  0  0  0  0  0  0
  1  6  1  0
  1  2  1  0
  1  7  1  0
  1  5  1  0
  2  8  1  0
  2  3  1  0
  3  4  1  0
  4 13  1  0
  9 10  1  0
 10 11  1  0
 11 14  1  0
 11 12  1  0
 12 16  1  0
 12 17  1  0
 12 15  1  0
M  RAD  5   2   2   3   2   9   2  10   2  11   2
M  END
>  <reaction>  (3) 
rmg_rxn_2002

>  <type>  (3) 
ts

>  <mol_properties>  (3) 
{"2": {"label": "*0", "atom_type": "N3s"}, "3": {"label": "*1", "atom_type": "O2s"}, "9": {"label": "*3", "atom_type": "N3s"}, "10": {"label": "*4", "atom_type": "Cs"}, "12": {"label": "*2", "atom_type": "H0"}}

$$$$
