
     RDKit          3D

 10  9  0  0  0  0  0  0  0  0999 V2000
    0.3907    1.2598    1.3544 C   0  0  0  0  0  0  0  0  0  0  0  0
    0.2018    0.2437    0.6051 C   0  0  0  0  0  0  0  0  0  0  0  0
   -0.1170   -0.7848   -0.1518 C   0  0  0  0  0  0  0  0  0  0  0  0
   -0.3933   -0.6990   -1.6228 C   0  0  0  0  0  0  0  0  0  0  0  0
   -0.5008    1.7258    1.7470 H   0  0  0  0  0  0  0  0  0  0  0  0
    1.3045    1.7483    1.6584 H   0  0  0  0  0  0  0  0  0  0  0  0
   -0.1666   -1.7655    0.3129 H   0  0  0  0  0  0  0  0  0  0  0  0
    0.3089   -1.3169   -2.1884 H   0  0  0  0  0  0  0  0  0  0  0  0
   -0.3141    0.3273   -1.9783 H   0  0  0  0  0  0  0  0  0  0  0  0
   -1.3986   -1.0647   -1.8475 H   0  0  0  0  0  0  0  0  0  0  0  0
  1  2  2  0
  1  5  1  0
  1  6  1  0
  2  3  2  0
  3  4  1  0
  3  7  1  0
  4  8  1  0
  4  9  1  0
  4 10  1  0
M  END
>  <reaction>  (1) 
rmg_rxn_14117

>  <type>  (1) 
r1h

>  <mol_properties>  (1) 
{"0": {"label": "donator", "atom_type": "Cd"}, "4": {"label": "d_hydrogen", "atom_type": "H0"}}

>  <electro_map>  (1) 
{"4": {"R": null, "A": null, "D": null}, "0": {"R": 1.0798405805123685, "A": null, "D": null}, "1": {"R": 1.2765511202917807, "A": 115.76640449217926, "D": null}, "2": {"R": 1.3162441436840169, "A": 145.37613420772607, "D": 180.29176793915946}, "3": {"R": 1.4992347195616134, "A": 124.34109113821705, "D": 87.197000555451}, "5": {"R": 4.431512365927149, "A": 40.049282385470136, "D": 12.693755843748512}, "6": {"R": 4.040015810944995, "A": 29.952974194477903, "D": 6.565754197251866}, "7": {"R": 2.585283732678986, "A": 95.98766367167572, "D": 22.2223493399651}, "8": {"R": 1.770746213976507, "A": 88.94880870935482, "D": 316.14807155123594}, "9": {"R": 1.769449194211921, "A": 59.59830790049708, "D": 292.5026771894882}}

$$$$

     RDKit          3D

 14 13  0  0  0  0  0  0  0  0999 V2000
    2.5413    1.0709   -0.8740 H   0  0  0  0  0  0  0  0  0  0  0  0
    1.5490    1.4056   -0.5774 C   0  0  0  0  0  0  0  0  0  0  0  0
    0.6734    0.4568   -1.0545 O   0  0  0  0  0  0  0  0  0  0  0  0
    0.6579   -0.7397   -0.3331 C   0  0  0  0  0  0  0  0  0  0  0  0
    0.1097   -0.6072    0.9502 O   0  0  0  0  0  0  0  0  0  0  0  0
   -1.2303   -0.4216    1.0561 C   0  0  0  0  0  0  0  0  0  0  0  0
   -2.1041   -0.1816    0.0890 C   0  0  0  0  0  0  0  0  0  0  0  0
    1.3952    2.3460   -1.0983 H   0  0  0  0  0  0  0  0  0  0  0  0
    1.5755    1.4936    0.5097 H   0  0  0  0  0  0  0  0  0  0  0  0
    1.6738   -1.1065   -0.1759 H   0  0  0  0  0  0  0  0  0  0  0  0
    0.0719   -1.4437   -0.9274 H   0  0  0  0  0  0  0  0  0  0  0  0
   -1.5299   -0.4999    2.0940 H   0  0  0  0  0  0  0  0  0  0  0  0
   -1.8255   -0.0526   -0.9467 H   0  0  0  0  0  0  0  0  0  0  0  0
   -3.1476   -0.0863    0.3512 H   0  0  0  0  0  0  0  0  0  0  0  0
  1  2  1  0
  2  3  1  0
  2  8  1  0
  2  9  1  0
  3  4  1  0
  4  5  1  0
  4 10  1  0
  4 11  1  0
  5  6  1  0
  6  7  2  3
  6 12  1  0
  7 13  1  0
  7 14  1  0
M  END
>  <reaction>  (2) 
rmg_rxn_14117

>  <type>  (2) 
r2h

>  <mol_properties>  (2) 
{"0": {"label": "a_hydrogen", "atom_type": "H0"}, "1": {"label": "acceptor", "atom_type": "Cs"}}

>  <electro_map>  (2) 
{"0": {"R": null, "A": null, "D": null}, "1": {"R": 1.0884658689741966, "A": null, "D": null}, "2": {"R": 1.3764399877755331, "A": 105.87100630654018, "D": null}, "3": {"R": 1.3972171594811582, "A": 103.27228479211216, "D": 244.30642204326344}, "4": {"R": 1.4017197859848185, "A": 113.33035284551926, "D": 68.96318172487857}, "5": {"R": 1.3569780461187704, "A": 118.07589160672177, "D": 71.85643436392083}, "6": {"R": 1.3252292254837628, "A": 128.23319770624278, "D": 350.90420567335417}, "7": {"R": 4.4769570274991715, "A": 77.31759984794725, "D": 319.12558469001755}, "8": {"R": 1.8289063568962551, "A": 65.21169902022008, "D": 355.56732747262873}, "9": {"R": 2.6907354883775376, "A": 103.29495572712635, "D": 66.44996224701988}, "10": {"R": 1.8012579495891898, "A": 104.75644414450188, "D": 296.9005586070579}, "11": {"R": 3.5475207845819616, "A": 89.79535175276253, "D": 300.42306213182906}, "12": {"R": 3.08765126216878, "A": 40.80094272662285, "D": 135.51243064089863}, "13": {"R": 1.8530734693493391, "A": 51.3825101311294, "D": 149.8342916002634}}

$$$$

     RDKit          3D

 23 21  0  0  0  0  0  0  0  0999 V2000
    2.6088    0.7428   -0.3365 C   0  0  0  0  0  0  0  0  0  0  0  0
    2.4199   -0.2733   -1.0858 C   0  0  0  0  0  0  0  0  0  0  0  0
    2.1011   -1.3019   -1.8427 C   0  0  0  0  0  0  0  0  0  0  0  0
    1.8248   -1.2160   -3.3137 C   0  0  0  0  0  0  0  0  0  0  0  0
    1.5045    1.3200    0.1498 H   0  0  0  0  0  0  0  0  0  0  0  0
    3.5226    1.2313   -0.0325 H   0  0  0  0  0  0  0  0  0  0  0  0
    2.0515   -2.2826   -1.3781 H   0  0  0  0  0  0  0  0  0  0  0  0
    2.5269   -1.8339   -3.8793 H   0  0  0  0  0  0  0  0  0  0  0  0
    1.9040   -0.1897   -3.6692 H   0  0  0  0  0  0  0  0  0  0  0  0
    0.8195   -1.5817   -3.5385 H   0  0  0  0  0  0  0  0  0  0  0  0
    0.2707    1.7362    0.5185 C   0  0  0  0  0  3  0  0  0  0  0  0
   -0.6049    0.7874    0.0414 O   0  0  0  0  0  0  0  0  0  0  0  0
   -0.6203   -0.4091    0.7628 C   0  0  0  0  0  0  0  0  0  0  0  0
   -1.1686   -0.2766    2.0461 O   0  0  0  0  0  0  0  0  0  0  0  0
   -2.5086   -0.0910    2.1520 C   0  0  0  0  0  0  0  0  0  0  0  0
   -3.3823    0.1490    1.1849 C   0  0  0  0  0  0  0  0  0  0  0  0
    0.1169    2.6766   -0.0024 H   0  0  0  0  0  0  0  0  0  0  0  0
    0.2972    1.8242    1.6056 H   0  0  0  0  0  0  0  0  0  0  0  0
    0.3955   -0.7759    0.9200 H   0  0  0  0  0  0  0  0  0  0  0  0
   -1.2064   -1.1131    0.1685 H   0  0  0  0  0  0  0  0  0  0  0  0
   -2.8081   -0.1693    3.1899 H   0  0  0  0  0  0  0  0  0  0  0  0
   -3.1037    0.2780    0.1492 H   0  0  0  0  0  0  0  0  0  0  0  0
   -4.4259    0.2443    1.4471 H   0  0  0  0  0  0  0  0  0  0  0  0
  1  2  2  0
  1  5  1  0
  1  6  1  0
  2  3  2  0
  3  4  1  0
  3  7  1  0
  4  8  1  0
  4  9  1  0
  4 10  1  0
 11 12  1  0
 11 17  1  0
 11 18  1  0
 12 13  1  0
 13 14  1  0
 13 19  1  0
 13 20  1  0
 14 15  1  0
 15 16  2  3
 15 21  1  0
 16 22  1  0
 16 23  1  0
M  RAD  1  11   2
M  END
>  <reaction>  (3) 
rmg_rxn_14117

>  <type>  (3) 
ts

>  <mol_properties>  (3) 
{"0": {"label": "*1", "atom_type": "Cd"}, "1": {"label": "*0", "atom_type": "Cdd"}, "4": {"label": "*2", "atom_type": "H0"}, "10": {"label": "*3", "atom_type": "Cs"}, "11": {"label": "*4", "atom_type": "O2s"}}

$$$$
