
     RDKit          3D

 10  9  0  0  0  0  0  0  0  0999 V2000
   -1.0270   -1.6055   -0.0003 C   0  0  0  0  0  0  0  0  0  0  0  0
   -0.4170   -0.4789   -0.2162 C   0  0  0  0  0  0  0  0  0  0  0  0
    0.2029    0.6550   -0.4226 C   0  0  0  0  0  0  0  0  0  0  0  0
    1.0833    1.3195    0.5474 C   0  0  0  0  0  0  0  0  0  0  0  0
   -2.0384   -1.6352    0.3906 H   0  0  0  0  0  0  0  0  0  0  0  0
   -0.5424   -2.5543   -0.2060 H   0  0  0  0  0  0  0  0  0  0  0  0
    0.0967    1.1122   -1.4029 H   0  0  0  0  0  0  0  0  0  0  0  0
    2.1109    1.0562    0.3073 H   0  0  0  0  0  0  0  0  0  0  0  0
    0.9655    0.9759    1.5723 H   0  0  0  0  0  0  0  0  0  0  0  0
    1.0873    2.4051    0.4771 H   0  0  0  0  0  0  0  0  0  0  0  0
  1  2  2  0
  1  5  1  0
  1  6  1  0
  2  3  2  0
  3  4  1  0
  3  7  1  0
  4  8  1  0
  4  9  1  0
  4 10  1  0
M  END
>  <reaction>  (1) 
rmg_rxn_14195

>  <type>  (1) 
r1h

>  <mol_properties>  (1) 
{"3": {"label": "donator", "atom_type": "Cs"}, "7": {"label": "d_hydrogen", "atom_type": "H0"}}

>  <electro_map>  (1) 
{"7": {"R": null, "A": null, "D": null}, "3": {"R": 1.0876468953860756, "A": null, "D": null}, "2": {"R": 1.4688724710252636, "A": 108.12092458300324, "D": null}, "1": {"R": 1.3086609324959426, "A": 123.08287733418392, "D": 256.384238444184}, "0": {"R": 1.0, "A": 90.0, "D": 180.0}, "4": {"R": 1.2991540485541715, "A": 90.0, "D": 180.0}, "5": {"R": 1.0847388039261918, "A": 121.45618555277053, "D": 93.01168124527722}, "6": {"R": 1.8543956986606995, "A": 31.288078041706438, "D": 179.93941607774627}, "8": {"R": 3.909482305260071, "A": 76.43915021185289, "D": 345.5167505800546}, "9": {"R": 3.102453454565296, "A": 73.20137520354861, "D": 82.05633106992629}}

$$$$

     RDKit          3D

 11 10  0  0  0  0  0  0  0  0999 V2000
    0.2881    1.2517   -0.0337 C   0  0  0  0  0  0  0  0  0  0  0  0
    0.0917   -0.1462   -0.5486 C   0  0  0  0  0  0  0  0  0  0  0  0
   -0.3348   -1.1265    0.5372 C   0  0  0  0  0  0  0  0  0  0  0  0
    0.8539    1.3378    0.8928 H   0  0  0  0  0  0  0  0  0  0  0  0
    0.5825    1.9931   -0.7737 H   0  0  0  0  0  0  0  0  0  0  0  0
   -0.6578   -0.1353   -1.3464 H   0  0  0  0  0  0  0  0  0  0  0  0
    1.0201   -0.4996   -1.0149 H   0  0  0  0  0  0  0  0  0  0  0  0
    0.4093   -1.1719    1.3358 H   0  0  0  0  0  0  0  0  0  0  0  0
   -1.2858   -0.8259    0.9812 H   0  0  0  0  0  0  0  0  0  0  0  0
   -0.4570   -2.1336    0.1354 H   0  0  0  0  0  0  0  0  0  0  0  0
   -0.7091    1.5879    0.2448 H   0  0  0  0  0  0  0  0  0  0  0  0
  1  2  1  0
  1  4  1  0
  1  5  1  0
  1 11  1  0
  2  3  1  0
  2  6  1  0
  2  7  1  0
  3  8  1  0
  3  9  1  0
  3 10  1  0
M  END
>  <reaction>  (2) 
rmg_rxn_14195

>  <type>  (2) 
r2h

>  <mol_properties>  (2) 
{"0": {"label": "acceptor", "atom_type": "Cs"}, "10": {"label": "a_hydrogen", "atom_type": "H0"}}

>  <electro_map>  (2) 
{"10": {"R": null, "A": null, "D": null}, "0": {"R": 1.0885711678092338, "A": null, "D": null}, "1": {"R": 1.5025919137473864, "A": 104.79343905551575, "D": null}, "2": {"R": 1.5236942955143138, "A": 99.07365532470878, "D": 120.52112151955853}, "3": {"R": 2.7590330194956416, "A": 52.888130478014865, "D": 341.36873007606596}, "4": {"R": 1.811181542555407, "A": 98.0457773938086, "D": 15.195018461501252}, "5": {"R": 2.529131249855927, "A": 88.70353173375605, "D": 2.484176861127142}, "6": {"R": 1.7487357204854965, "A": 70.2347165174622, "D": 295.245387840185}, "7": {"R": 2.5200687751770414, "A": 89.99037664193057, "D": 98.06668156286727}, "8": {"R": 1.7660576619404198, "A": 89.60357502846058, "D": 0.8702339924979311}, "9": {"R": 1.7641768466593881, "A": 60.009105148393, "D": 64.94583739364631}}

$$$$

     RDKit          3D

 20 18  0  0  0  0  0  0  0  0999 V2000
    2.1339    0.8811   -0.0715 C   0  0  0  0  0  3  0  0  0  0  0  0
    1.9375   -0.5168   -0.5863 C   0  0  0  0  0  0  0  0  0  0  0  0
    1.5110   -1.4971    0.4994 C   0  0  0  0  0  0  0  0  0  0  0  0
    2.6997    0.9672    0.8551 H   0  0  0  0  0  0  0  0  0  0  0  0
    2.4282    1.6225   -0.8114 H   0  0  0  0  0  0  0  0  0  0  0  0
    1.1880   -0.5059   -1.3842 H   0  0  0  0  0  0  0  0  0  0  0  0
    2.8659   -0.8702   -1.0527 H   0  0  0  0  0  0  0  0  0  0  0  0
    2.2551   -1.5424    1.2980 H   0  0  0  0  0  0  0  0  0  0  0  0
    0.5600   -1.1965    0.9434 H   0  0  0  0  0  0  0  0  0  0  0  0
    1.3888   -2.5042    0.0977 H   0  0  0  0  0  0  0  0  0  0  0  0
   -2.4917   -1.2951    0.0273 C   0  0  0  0  0  0  0  0  0  0  0  0
   -1.8817   -0.1685   -0.1886 C   0  0  0  0  0  0  0  0  0  0  0  0
   -1.2618    0.9654   -0.3949 C   0  0  0  0  0  0  0  0  0  0  0  0
   -0.3814    1.6299    0.5751 C   0  0  0  0  0  0  0  0  0  0  0  0
   -3.5031   -1.3248    0.4183 H   0  0  0  0  0  0  0  0  0  0  0  0
   -2.0071   -2.2439   -0.1783 H   0  0  0  0  0  0  0  0  0  0  0  0
   -1.3680    1.4226   -1.3752 H   0  0  0  0  0  0  0  0  0  0  0  0
    0.8451    1.3157    0.2885 H   0  0  0  0  0  0  0  0  0  0  0  0
   -0.4992    1.2863    1.6000 H   0  0  0  0  0  0  0  0  0  0  0  0
   -0.3774    2.7155    0.5048 H   0  0  0  0  0  0  0  0  0  0  0  0
  1  2  1  0
  1  4  1  0
  1  5  1  0
  2  3  1  0
  2  6  1  0
  2  7  1  0
  3  8  1  0
  3  9  1  0
  3 10  1  0
 11 12  2  0
 11 15  1  0
 11 16  1  0
 12 13  2  0
 13 14  1  0
 13 17  1  0
 14 18  1  0
 14 19  1  0
 14 20  1  0
M  RAD  1   1   2
M  END
>  <reaction>  (3) 
rmg_rxn_14195

>  <type>  (3) 
ts

>  <mol_properties>  (3) 
{"0": {"label": "*3", "atom_type": "Cs"}, "1": {"label": "*4", "atom_type": "Cs"}, "12": {"label": "*0", "atom_type": "Cd"}, "13": {"label": "*1", "atom_type": "Cs"}, "17": {"label": "*2", "atom_type": "H0"}}

$$$$
