
     RDKit          3D

  4  3  0  0  0  0  0  0  0  0999 V2000
    0.8047    0.6157    0.3574 O   0  0  0  0  0  0  0  0  0  0  0  0
   -0.0221   -0.3720    0.2952 N   0  0  0  0  0  0  0  0  0  0  0  0
   -0.8217   -0.3760   -0.5823 O   0  0  0  0  0  0  0  0  0  0  0  0
    0.6201    1.2226   -0.3632 H   0  0  0  0  0  0  0  0  0  0  0  0
  1  2  1  0
  1  4  1  0
  2  3  2  0
M  END
>  <reaction>  (1) 
rmg_rxn_2775

>  <type>  (1) 
r1h

>  <mol_properties>  (1) 
{"0": {"label": "donator", "atom_type": "O2s"}, "3": {"label": "d_hydrogen", "atom_type": "H0"}}

>  <electro_map>  (1) 
{"3": {"R": null, "A": null, "D": null}, "0": {"R": 0.9600000538428609, "A": null, "D": null}, "1": {"R": 1.2895766648883786, "A": 108.9510155523007, "D": null}, "2": {"R": 1.187132276519361, "A": 88.48384445486019, "D": 180.14833306185528}}

$$$$

     RDKit          3D

  9  8  0  0  0  0  0  0  0  0999 V2000
   -0.7262    0.1802    1.9481 H   0  0  0  0  0  0  0  0  0  0  0  0
   -0.9214    0.9228    1.1764 C   0  0  0  0  0  0  0  0  0  0  0  0
   -0.8066    0.2762   -0.1672 C   0  0  0  0  0  0  0  0  0  0  0  0
    0.7658   -0.5736   -0.4856 S   0  0  0  0  0  0  0  0  0  0  0  0
   -0.1359    1.6311    1.4366 H   0  0  0  0  0  0  0  0  0  0  0  0
   -1.9195    1.2632    1.4443 H   0  0  0  0  0  0  0  0  0  0  0  0
   -0.9682    1.0250   -0.9490 H   0  0  0  0  0  0  0  0  0  0  0  0
   -1.5738   -0.4872   -0.2907 H   0  0  0  0  0  0  0  0  0  0  0  0
    1.5496    0.5106   -0.4117 H   0  0  0  0  0  0  0  0  0  0  0  0
  1  2  1  0
  2  3  1  0
  2  5  1  0
  2  6  1  0
  3  4  1  0
  3  7  1  0
  3  8  1  0
  4  9  1  0
M  END
>  <reaction>  (2) 
rmg_rxn_2775

>  <type>  (2) 
r2h

>  <mol_properties>  (2) 
{"0": {"label": "a_hydrogen", "atom_type": "H0"}, "1": {"label": "acceptor", "atom_type": "Cs"}}

>  <electro_map>  (2) 
{"0": {"R": null, "A": null, "D": null}, "1": {"R": 1.0886065936764753, "A": null, "D": null}, "2": {"R": 1.4955523036532847, "A": 109.15495172742209, "D": null}, "3": {"R": 1.8154438053134154, "A": 96.94944274313086, "D": 131.7239785520335}, "8": {"R": 1.339906118292626, "A": 96.78956659367846, "D": 296.7967008487831}, "4": {"R": 2.740867101226043, "A": 90.47135998440153, "D": 31.879412030733647}, "5": {"R": 1.8211377937558226, "A": 121.50609455898496, "D": 330.27864058058145}, "6": {"R": 2.586423154098274, "A": 69.78467418708864, "D": 332.12477230327903}, "7": {"R": 1.7569074547265935, "A": 66.78611120202132, "D": 115.90600189672972}}

$$$$

     RDKit          3D

 12 10  0  0  0  0  0  0  0  0999 V2000
    0.0726   -0.0967    1.9232 O   0  0  0  0  0  0  0  0  0  0  0  0
   -0.7542   -1.0843    1.8611 N   0  0  0  0  0  0  0  0  0  0  0  0
   -1.5537   -1.0884    0.9836 O   0  0  0  0  0  0  0  0  0  0  0  0
   -0.1552    0.6525    1.0338 H   0  0  0  0  0  0  0  0  0  0  0  0
   -0.4035    1.5974    0.0519 C   0  0  0  0  0  3  0  0  0  0  0  0
   -0.2887    0.9507   -1.2917 C   0  0  0  0  0  0  0  0  0  0  0  0
    1.2837    0.1009   -1.6100 S   0  0  0  0  0  0  0  0  0  0  0  0
    0.3819    2.3056    0.3121 H   0  0  0  0  0  0  0  0  0  0  0  0
   -1.4017    1.9378    0.3199 H   0  0  0  0  0  0  0  0  0  0  0  0
   -0.4504    1.6995   -2.0734 H   0  0  0  0  0  0  0  0  0  0  0  0
   -1.0559    0.1873   -1.4152 H   0  0  0  0  0  0  0  0  0  0  0  0
    2.0674    1.1852   -1.5362 H   0  0  0  0  0  0  0  0  0  0  0  0
  1  2  1  0
  1  4  1  0
  2  3  2  0
  5  6  1  0
  5  8  1  0
  5  9  1  0
  6  7  1  0
  6 10  1  0
  6 11  1  0
  7 12  1  0
M  RAD  1   5   2
M  END
>  <reaction>  (3) 
rmg_rxn_2775

>  <type>  (3) 
ts

>  <mol_properties>  (3) 
{"0": {"label": "*1", "atom_type": "O2s"}, "1": {"label": "*0", "atom_type": "N3d"}, "3": {"label": "*2", "atom_type": "H0"}, "4": {"label": "*3", "atom_type": "Cs"}, "5": {"label": "*4", "atom_type": "Cs"}}

$$$$
