
     RDKit          3D

  4  3  0  0  0  0  0  0  0  0999 V2000
   -0.3505    0.7201    0.7115 O   0  0  0  0  0  0  0  0  0  0  0  0
    0.0414   -0.7489   -0.7751 O   0  0  0  0  0  0  0  0  0  0  0  0
    0.4622   -0.0048    0.0510 N   0  0  0  0  0  0  0  0  0  0  0  0
   -1.2447    0.5707    0.3959 H   0  0  0  0  0  0  0  0  0  0  0  0
  1  3  1  0
  1  4  1  0
  2  3  2  0
M  END
>  <reaction>  (1) 
rmg_rxn_13866

>  <type>  (1) 
r1h

>  <mol_properties>  (1) 
{"0": {"label": "donator", "atom_type": "O2s"}, "3": {"label": "d_hydrogen", "atom_type": "H0"}}

>  <electro_map>  (1) 
{"3": {"R": null, "A": null, "D": null}, "0": {"R": 0.9600000227987764, "A": null, "D": null}, "2": {"R": 1.2736658932935505, "A": 109.58815472354263, "D": null}, "1": {"R": 1.1887485565914853, "A": 89.86715338507125, "D": 177.9340034947959}}

$$$$

     RDKit          3D

 10  9  0  0  0  0  0  0  0  0999 V2000
    0.0082   -1.7710    0.7078 C   0  0  0  0  0  0  0  0  0  0  0  0
   -0.4275    1.7306   -0.8533 C   0  0  0  0  0  0  0  0  0  0  0  0
    0.4360   -0.4019    0.3275 C   0  0  0  0  0  0  0  0  0  0  0  0
   -0.0311    0.6203   -0.2599 C   0  0  0  0  0  0  0  0  0  0  0  0
    0.6135   -2.5095    0.1815 H   0  0  0  0  0  0  0  0  0  0  0  0
    0.1371   -1.9319    1.7789 H   0  0  0  0  0  0  0  0  0  0  0  0
   -1.0417   -1.9232    0.4534 H   0  0  0  0  0  0  0  0  0  0  0  0
   -0.3345    1.8521   -1.9258 H   0  0  0  0  0  0  0  0  0  0  0  0
   -0.8708    2.5401   -0.2860 H   0  0  0  0  0  0  0  0  0  0  0  0
    1.4535   -0.1913    0.6568 H   0  0  0  0  0  0  0  0  0  0  0  0
  1  3  1  0
  1  5  1  0
  1  6  1  0
  1  7  1  0
  2  4  2  0
  2  8  1  0
  2  9  1  0
  3  4  2  0
  3 10  1  0
M  END
>  <reaction>  (2) 
rmg_rxn_13866

>  <type>  (2) 
r2h

>  <mol_properties>  (2) 
{"2": {"label": "acceptor", "atom_type": "Cd"}, "9": {"label": "a_hydrogen", "atom_type": "H0"}}

>  <electro_map>  (2) 
{"9": {"R": null, "A": null, "D": null}, "2": {"R": 1.0899999909882152, "A": null, "D": null}, "3": {"R": 1.2681030221146663, "A": 109.14568314044853, "D": null}, "1": {"R": 1.3198959777043584, "A": 143.19085082239732, "D": 180.01871413513075}, "0": {"R": 3.8585548919494475, "A": 11.697215678878653, "D": 181.07442791433627}, "4": {"R": 1.0902986841701336, "A": 118.81742349368585, "D": 285.49437031607994}, "5": {"R": 1.764167183810041, "A": 36.0234041930874, "D": 146.27742986082617}, "6": {"R": 1.7738371411371416, "A": 60.2962143655172, "D": 36.176743918354575}, "7": {"R": 4.518173607329811, "A": 107.07098142046847, "D": 276.92142140999874}, "8": {"R": 1.857371685581445, "A": 78.42779065159277, "D": 295.76508339349635}}

$$$$

     RDKit          3D

 13 11  0  0  0  0  0  0  0  0999 V2000
    2.0752    0.3550    0.9749 O   0  0  0  0  0  0  0  0  0  0  0  0
    2.4671   -1.1141   -0.5117 O   0  0  0  0  0  0  0  0  0  0  0  0
    2.8878   -0.3699    0.3144 N   0  0  0  0  0  0  0  0  0  0  0  0
   -0.7505   -1.4640    0.5450 C   0  0  0  0  0  0  0  0  0  0  0  0
   -1.1861    2.0377   -1.0161 C   0  0  0  0  0  0  0  0  0  0  0  0
   -0.3227   -0.0949    0.1647 C   0  0  0  0  0  3  0  0  0  0  0  0
   -0.7898    0.9273   -0.4227 C   0  0  0  0  0  0  0  0  0  0  0  0
   -0.1452   -2.2024    0.0187 H   0  0  0  0  0  0  0  0  0  0  0  0
   -0.6216   -1.6248    1.6161 H   0  0  0  0  0  0  0  0  0  0  0  0
   -1.8004   -1.6161    0.2907 H   0  0  0  0  0  0  0  0  0  0  0  0
   -1.0931    2.1592   -2.0886 H   0  0  0  0  0  0  0  0  0  0  0  0
   -1.6295    2.8471   -0.4488 H   0  0  0  0  0  0  0  0  0  0  0  0
    0.9089    0.1601    0.5633 H   0  0  0  0  0  0  0  0  0  0  0  0
  1  3  1  0
  1 13  1  0
  2  3  2  0
  4  6  1  0
  4  8  1  0
  4  9  1  0
  4 10  1  0
  5  7  2  0
  5 11  1  0
  5 12  1  0
  6  7  2  0
M  RAD  1   6   2
M  END
>  <reaction>  (3) 
rmg_rxn_13866

>  <type>  (3) 
ts

>  <mol_properties>  (3) 
{"0": {"label": "*1", "atom_type": "O2s"}, "2": {"label": "*0", "atom_type": "N3d"}, "5": {"label": "*3", "atom_type": "Cd"}, "6": {"label": "*4", "atom_type": "Cdd"}, "12": {"label": "*2", "atom_type": "H0"}}

$$$$
