
     RDKit          3D

 10  9  0  0  0  0  0  0  0  0999 V2000
   -1.2980   -1.1541    0.7448 C   0  0  0  0  0  0  0  0  0  0  0  0
   -0.3028   -0.5900    0.1662 C   0  0  0  0  0  0  0  0  0  0  0  0
    0.6287    0.0422   -0.5084 C   0  0  0  0  0  0  0  0  0  0  0  0
    0.9303    1.5050   -0.3680 C   0  0  0  0  0  0  0  0  0  0  0  0
   -2.2445   -1.1150    0.2250 H   0  0  0  0  0  0  0  0  0  0  0  0
   -1.3384   -1.6651    1.6962 H   0  0  0  0  0  0  0  0  0  0  0  0
    1.2339   -0.5343   -1.2019 H   0  0  0  0  0  0  0  0  0  0  0  0
    0.2272    1.9948    0.3045 H   0  0  0  0  0  0  0  0  0  0  0  0
    0.8747    1.9992   -1.3409 H   0  0  0  0  0  0  0  0  0  0  0  0
    1.9429    1.6566    0.0140 H   0  0  0  0  0  0  0  0  0  0  0  0
  1  2  2  0
  1  5  1  0
  1  6  1  0
  2  3  2  0
  3  4  1  0
  3  7  1  0
  4  8  1  0
  4  9  1  0
  4 10  1  0
M  END
>  <reaction>  (1) 
rmg_rxn_14027

>  <type>  (1) 
r1h

>  <mol_properties>  (1) 
{"0": {"label": "donator", "atom_type": "Cd"}, "4": {"label": "d_hydrogen", "atom_type": "H0"}}

>  <electro_map>  (1) 
{"4": {"R": null, "A": null, "D": null}, "0": {"R": 1.080641256533342, "A": null, "D": null}, "1": {"R": 1.2819936501558489, "A": 116.54769502810277, "D": null}, "2": {"R": 1.3123962724660057, "A": 145.643379416021, "D": 182.16378118363795}, "3": {"R": 1.5001231778749395, "A": 124.353179903455, "D": 77.10273159950543}, "5": {"R": 4.411082113978356, "A": 40.50056877582716, "D": 12.885081559689192}, "6": {"R": 4.036597674846258, "A": 30.11238408399151, "D": 6.602290626765848}, "7": {"R": 3.1110758514525503, "A": 70.96915995557335, "D": 356.3365716197794}, "8": {"R": 1.7681819664147607, "A": 55.45886332013305, "D": 202.91913039630165}, "9": {"R": 1.7590272224319303, "A": 60.33826941793831, "D": 291.5129851797966}}

$$$$

     RDKit          3D

 12 11  0  0  0  0  0  0  0  0999 V2000
   -0.1114   -1.6348   -0.5603 C   0  0  0  0  0  0  0  0  0  0  0  0
   -0.8593   -0.3843   -0.1850 C   0  0  0  0  0  0  0  0  0  0  0  0
   -0.0280    0.8962   -0.2386 C   0  0  0  0  0  0  0  0  0  0  0  0
    0.8102    1.0741    0.8807 O   0  0  0  0  0  0  0  0  0  0  0  0
   -0.6248   -2.5711   -0.3531 H   0  0  0  0  0  0  0  0  0  0  0  0
    0.3371   -1.6196   -1.5533 H   0  0  0  0  0  0  0  0  0  0  0  0
   -1.7038   -0.2680   -0.8774 H   0  0  0  0  0  0  0  0  0  0  0  0
   -1.2893   -0.4749    0.8156 H   0  0  0  0  0  0  0  0  0  0  0  0
   -0.6936    1.7604   -0.2473 H   0  0  0  0  0  0  0  0  0  0  0  0
    0.5523    0.9187   -1.1721 H   0  0  0  0  0  0  0  0  0  0  0  0
    1.4243    0.3341    0.9305 H   0  0  0  0  0  0  0  0  0  0  0  0
    0.7929   -1.7308    0.0382 H   0  0  0  0  0  0  0  0  0  0  0  0
  1  2  1  0
  1  5  1  0
  1  6  1  0
  1 12  1  0
  2  3  1  0
  2  7  1  0
  2  8  1  0
  3  4  1  0
  3  9  1  0
  3 10  1  0
  4 11  1  0
M  END
>  <reaction>  (2) 
rmg_rxn_14027

>  <type>  (2) 
r2h

>  <mol_properties>  (2) 
{"0": {"label": "acceptor", "atom_type": "Cs"}, "11": {"label": "a_hydrogen", "atom_type": "H0"}}

>  <electro_map>  (2) 
{"11": {"R": null, "A": null, "D": null}, "0": {"R": 1.0887475191738452, "A": null, "D": null}, "1": {"R": 1.5045476957439106, "A": 110.43058134376867, "D": null}, "2": {"R": 1.5275789748034223, "A": 96.36297458509712, "D": 227.4421645334389}, "3": {"R": 1.4096664465700128, "A": 113.67203806884596, "D": 281.0996770634312}, "10": {"R": 0.9629279510505911, "A": 108.86616312503978, "D": 60.34461846272145}, "4": {"R": 3.7797800785252837, "A": 103.14037960181597, "D": 325.8429936727588}, "5": {"R": 1.8086624956351214, "A": 62.13993953822641, "D": 90.45171026015593}, "6": {"R": 2.539508393089213, "A": 71.09052631860148, "D": 284.9100825177581}, "7": {"R": 1.7553241665102524, "A": 90.23984883880172, "D": 52.56164291581232}, "8": {"R": 2.5458169623398508, "A": 63.19744454001123, "D": 100.9815036816941}, "9": {"R": 1.765175956406039, "A": 88.00590707888915, "D": 289.5242133909181}}

$$$$

     RDKit          3D

 21 19  0  0  0  0  0  0  0  0999 V2000
   -1.7818   -1.3434   -0.5927 C   0  0  0  0  0  3  0  0  0  0  0  0
   -2.5296   -0.0929   -0.2174 C   0  0  0  0  0  0  0  0  0  0  0  0
   -1.6984    1.1876   -0.2710 C   0  0  0  0  0  0  0  0  0  0  0  0
   -0.8601    1.3655    0.8483 O   0  0  0  0  0  0  0  0  0  0  0  0
   -2.2951   -2.2797   -0.3855 H   0  0  0  0  0  0  0  0  0  0  0  0
   -1.3332   -1.3282   -1.5857 H   0  0  0  0  0  0  0  0  0  0  0  0
   -3.3742    0.0234   -0.9098 H   0  0  0  0  0  0  0  0  0  0  0  0
   -2.9596   -0.1835    0.7832 H   0  0  0  0  0  0  0  0  0  0  0  0
   -2.3639    2.0518   -0.2797 H   0  0  0  0  0  0  0  0  0  0  0  0
   -1.1181    1.2101   -1.2045 H   0  0  0  0  0  0  0  0  0  0  0  0
   -0.2460    0.6255    0.8981 H   0  0  0  0  0  0  0  0  0  0  0  0
    0.5066   -1.5121    0.7928 C   0  0  0  0  0  0  0  0  0  0  0  0
    1.5018   -0.9479    0.2142 C   0  0  0  0  0  0  0  0  0  0  0  0
    2.4333   -0.3157   -0.4604 C   0  0  0  0  0  0  0  0  0  0  0  0
    2.7349    1.1471   -0.3201 C   0  0  0  0  0  0  0  0  0  0  0  0
   -0.6389   -1.4647    0.1636 H   0  0  0  0  0  0  0  0  0  0  0  0
    0.4662   -2.0231    1.7441 H   0  0  0  0  0  0  0  0  0  0  0  0
    3.0385   -0.8923   -1.1539 H   0  0  0  0  0  0  0  0  0  0  0  0
    2.0318    1.6368    0.3524 H   0  0  0  0  0  0  0  0  0  0  0  0
    2.6793    1.6413   -1.2930 H   0  0  0  0  0  0  0  0  0  0  0  0
    3.7475    1.2987    0.0619 H   0  0  0  0  0  0  0  0  0  0  0  0
  1  2  1  0
  1  5  1  0
  1  6  1  0
  2  3  1  0
  2  7  1  0
  2  8  1  0
  3  4  1  0
  3  9  1  0
  3 10  1  0
  4 11  1  0
 12 13  2  0
 12 16  1  0
 12 17  1  0
 13 14  2  0
 14 15  1  0
 14 18  1  0
 15 19  1  0
 15 20  1  0
 15 21  1  0
M  RAD  1   1   2
M  END
>  <reaction>  (3) 
rmg_rxn_14027

>  <type>  (3) 
ts

>  <mol_properties>  (3) 
{"0": {"label": "*3", "atom_type": "Cs"}, "1": {"label": "*4", "atom_type": "Cs"}, "11": {"label": "*1", "atom_type": "Cd"}, "12": {"label": "*0", "atom_type": "Cdd"}, "15": {"label": "*2", "atom_type": "H0"}}

$$$$
