
     RDKit          3D

 10  9  0  0  0  0  0  0  0  0999 V2000
   -1.4587    0.9415   -0.7461 C   0  0  0  0  0  0  0  0  0  0  0  0
   -0.4858    0.4761   -0.0620 C   0  0  0  0  0  0  0  0  0  0  0  0
    0.4458   -0.0988    0.6682 C   0  0  0  0  0  0  0  0  0  0  0  0
    1.3856   -1.1519    0.1611 C   0  0  0  0  0  0  0  0  0  0  0  0
   -2.3852    0.3893   -0.6929 H   0  0  0  0  0  0  0  0  0  0  0  0
   -1.5099    1.8114   -1.3839 H   0  0  0  0  0  0  0  0  0  0  0  0
    0.5550    0.2184    1.7011 H   0  0  0  0  0  0  0  0  0  0  0  0
    1.2937   -2.0678    0.7510 H   0  0  0  0  0  0  0  0  0  0  0  0
    2.4241   -0.8206    0.2413 H   0  0  0  0  0  0  0  0  0  0  0  0
    1.1806   -1.3924   -0.8813 H   0  0  0  0  0  0  0  0  0  0  0  0
  1  2  2  0
  1  5  1  0
  1  6  1  0
  2  3  2  0
  3  4  1  0
  3  7  1  0
  4  8  1  0
  4  9  1  0
  4 10  1  0
M  END
>  <reaction>  (1) 
rmg_rxn_14042

>  <type>  (1) 
r1h

>  <mol_properties>  (1) 
{"0": {"label": "donator", "atom_type": "Cd"}, "4": {"label": "d_hydrogen", "atom_type": "H0"}}

>  <electro_map>  (1) 
{"4": {"R": null, "A": null, "D": null}, "0": {"R": 1.0798996955599154, "A": null, "D": null}, "1": {"R": 1.2771438302194578, "A": 116.15603696139937, "D": null}, "2": {"R": 1.3158752547711654, "A": 145.80247402844842, "D": 180.99126501196264}, "3": {"R": 1.499769113573056, "A": 124.24865242686519, "D": 83.76488520971252}, "5": {"R": 4.421782044421034, "A": 40.291412424499015, "D": 12.932938512909121}, "6": {"R": 4.039701370684056, "A": 30.02148873579201, "D": 6.5884046322037735}, "7": {"R": 2.5835720895344276, "A": 102.37190321524662, "D": 342.5530056650923}, "8": {"R": 1.7588101417002715, "A": 70.29606828733237, "D": 83.74408986126247}, "9": {"R": 1.770144392147749, "A": 60.21067922082411, "D": 259.37012375659333}}

$$$$

     RDKit          3D

 11 10  0  0  0  0  0  0  0  0999 V2000
   -0.6186    0.7928    0.8288 C   0  0  0  0  0  0  0  0  0  0  0  0
   -0.0086    0.2919   -0.4513 C   0  0  0  0  0  0  0  0  0  0  0  0
    0.5960   -1.0838   -0.4066 C   0  0  0  0  0  0  0  0  0  0  0  0
   -0.9616    1.8242    0.7353 H   0  0  0  0  0  0  0  0  0  0  0  0
   -1.4785    0.1798    1.1214 H   0  0  0  0  0  0  0  0  0  0  0  0
    0.1078    0.7498    1.6442 H   0  0  0  0  0  0  0  0  0  0  0  0
   -0.6178    0.4800   -1.3356 H   0  0  0  0  0  0  0  0  0  0  0  0
    1.0527   -1.3522   -1.3601 H   0  0  0  0  0  0  0  0  0  0  0  0
    1.3691   -1.1383    0.3648 H   0  0  0  0  0  0  0  0  0  0  0  0
   -0.1600   -1.8407   -0.1694 H   0  0  0  0  0  0  0  0  0  0  0  0
    0.8557    0.9358   -0.6151 H   0  0  0  0  0  0  0  0  0  0  0  0
  1  2  1  0
  1  4  1  0
  1  5  1  0
  1  6  1  0
  2  3  1  0
  2  7  1  0
  2 11  1  0
  3  8  1  0
  3  9  1  0
  3 10  1  0
M  END
>  <reaction>  (2) 
rmg_rxn_14042

>  <type>  (2) 
r2h

>  <mol_properties>  (2) 
{"1": {"label": "acceptor", "atom_type": "Cs"}, "10": {"label": "a_hydrogen", "atom_type": "H0"}}

>  <electro_map>  (2) 
{"10": {"R": null, "A": null, "D": null}, "1": {"R": 1.090207001777437, "A": null, "D": null}, "0": {"R": 1.5038382378594426, "A": 104.63529219086912, "D": null}, "2": {"R": 2.554032641364299, "A": 51.2609252259576, "D": 38.550340521801495}, "3": {"R": 3.490881622361717, "A": 10.740509309273149, "D": 7.165765782867603}, "4": {"R": 1.7664489848903344, "A": 55.01489294150971, "D": 324.4636091888986}, "5": {"R": 1.7647684095562441, "A": 60.06890082172636, "D": 63.10577386855083}, "6": {"R": 3.0787417960512586, "A": 58.20801505232289, "D": 296.08797474032144}, "7": {"R": 2.4795509382501497, "A": 85.1553859443407, "D": 247.83866946122114}, "8": {"R": 1.7666809840191986, "A": 91.23406920462425, "D": 1.1805383029091914}, "9": {"R": 1.7654348625498053, "A": 60.085915621344824, "D": 71.44190168076763}}

$$$$

     RDKit          3D

 20 18  0  0  0  0  0  0  0  0999 V2000
   -2.6754    0.3500    0.7819 C   0  0  0  0  0  0  0  0  0  0  0  0
   -2.0654   -0.1510   -0.4981 C   0  0  0  0  0  3  0  0  0  0  0  0
   -1.4608   -1.5266   -0.4535 C   0  0  0  0  0  0  0  0  0  0  0  0
   -3.0184    1.3813    0.6884 H   0  0  0  0  0  0  0  0  0  0  0  0
   -3.5353   -0.2630    1.0746 H   0  0  0  0  0  0  0  0  0  0  0  0
   -1.9491    0.3070    1.5974 H   0  0  0  0  0  0  0  0  0  0  0  0
   -2.6746    0.0372   -1.3825 H   0  0  0  0  0  0  0  0  0  0  0  0
   -1.0041   -1.7950   -1.4070 H   0  0  0  0  0  0  0  0  0  0  0  0
   -0.6878   -1.5811    0.3179 H   0  0  0  0  0  0  0  0  0  0  0  0
   -2.2168   -2.2835   -0.2163 H   0  0  0  0  0  0  0  0  0  0  0  0
    0.1401    1.3226   -0.7657 C   0  0  0  0  0  0  0  0  0  0  0  0
    1.1130    0.8572   -0.0816 C   0  0  0  0  0  0  0  0  0  0  0  0
    2.0446    0.2824    0.6486 C   0  0  0  0  0  0  0  0  0  0  0  0
    2.9843   -0.7708    0.1415 C   0  0  0  0  0  0  0  0  0  0  0  0
   -0.9983    0.6442   -0.7004 H   0  0  0  0  0  0  0  0  0  0  0  0
    0.0889    2.1926   -1.4035 H   0  0  0  0  0  0  0  0  0  0  0  0
    2.1538    0.5995    1.6815 H   0  0  0  0  0  0  0  0  0  0  0  0
    2.8924   -1.6867    0.7314 H   0  0  0  0  0  0  0  0  0  0  0  0
    4.0229   -0.4395    0.2217 H   0  0  0  0  0  0  0  0  0  0  0  0
    2.7794   -1.0113   -0.9009 H   0  0  0  0  0  0  0  0  0  0  0  0
  1  2  1  0
  1  4  1  0
  1  5  1  0
  1  6  1  0
  2  3  1  0
  2  7  1  0
  3  8  1  0
  3  9  1  0
  3 10  1  0
 11 12  2  0
 11 15  1  0
 11 16  1  0
 12 13  2  0
 13 14  1  0
 13 17  1  0
 14 18  1  0
 14 19  1  0
 14 20  1  0
M  RAD  1   2   2
M  END
>  <reaction>  (3) 
rmg_rxn_14042

>  <type>  (3) 
ts

>  <mol_properties>  (3) 
{"0": {"label": "*4", "atom_type": "Cs"}, "1": {"label": "*3", "atom_type": "Cs"}, "10": {"label": "*1", "atom_type": "Cd"}, "11": {"label": "*0", "atom_type": "Cdd"}, "14": {"label": "*2", "atom_type": "H0"}}

$$$$
