
     RDKit          3D

  5  4  0  0  0  0  0  0  0  0999 V2000
   -0.9517    0.1337   -0.4923 O   0  0  0  0  0  0  0  0  0  0  0  0
   -0.0831   -0.2593    0.3856 N   0  0  0  0  0  0  0  0  0  0  0  0
    1.0840    0.0746    0.1986 N   0  0  0  0  0  0  0  0  0  0  0  0
   -0.5065    0.6608   -1.1598 H   0  0  0  0  0  0  0  0  0  0  0  0
    1.6258   -0.3091    0.9735 H   0  0  0  0  0  0  0  0  0  0  0  0
  1  2  1  0
  1  4  1  0
  2  3  2  3
  3  5  1  0
M  END
>  <reaction>  (1) 
rmg_rxn_15383

>  <type>  (1) 
r1h

>  <mol_properties>  (1) 
{"0": {"label": "donator", "atom_type": "O2s"}, "3": {"label": "d_hydrogen", "atom_type": "H0"}}

>  <electro_map>  (1) 
{"3": {"R": null, "A": null, "D": null}, "0": {"R": 0.9600000538428609, "A": null, "D": null}, "1": {"R": 1.2959433736822117, "A": 109.06891597770063, "D": null}, "2": {"R": 1.2282098289487802, "A": 87.42467337137916, "D": 178.87812493752762}, "4": {"R": 1.0203721243712554, "A": 106.6686361134478, "D": 179.76712868462806}}

$$$$

     RDKit          3D

  6  5  0  0  0  0  0  0  0  0999 V2000
   -0.4433   -1.7166    1.1042 H   0  0  0  0  0  0  0  0  0  0  0  0
    0.2316    0.8976   -0.6148 O   0  0  0  0  0  0  0  0  0  0  0  0
   -0.3240    0.0556    0.3437 N   0  0  0  0  0  0  0  0  0  0  0  0
    0.0687   -1.1093    0.3616 C   0  0  0  0  0  0  0  0  0  0  0  0
   -0.2066    1.7355   -0.4454 H   0  0  0  0  0  0  0  0  0  0  0  0
    0.8209   -1.6342   -0.2224 H   0  0  0  0  0  0  0  0  0  0  0  0
  1  4  1  0
  2  3  1  0
  2  5  1  0
  3  4  2  3
  4  6  1  0
M  END
>  <reaction>  (2) 
rmg_rxn_15383

>  <type>  (2) 
r2h

>  <mol_properties>  (2) 
{"0": {"label": "a_hydrogen", "atom_type": "H0"}, "3": {"label": "acceptor", "atom_type": "Cd"}}

>  <electro_map>  (2) 
{"0": {"R": null, "A": null, "D": null}, "3": {"R": 1.087370715732644, "A": null, "D": null}, "2": {"R": 1.2294950477621367, "A": 112.87529696479851, "D": null}, "1": {"R": 1.3915243776566297, "A": 148.29043581470225, "D": 4.6203759656278685}, "4": {"R": 0.9606286769938039, "A": 102.95017089549559, "D": 180.26607299186625}, "5": {"R": 3.529876847104598, "A": 17.39052576774532, "D": 2.4819649762863283}}

$$$$

     RDKit          3D

 10  8  0  0  0  0  0  0  0  0999 V2000
   -1.2251   -1.1273    0.7202 O   0  0  0  0  0  0  0  0  0  0  0  0
   -0.3566   -1.5202    1.5981 N   0  0  0  0  0  0  0  0  0  0  0  0
    0.8105   -1.1864    1.4112 N   0  0  0  0  0  0  0  0  0  0  0  0
   -0.7016   -0.5074   -0.0647 H   0  0  0  0  0  0  0  0  0  0  0  0
    1.3524   -1.5700    2.1860 H   0  0  0  0  0  0  0  0  0  0  0  0
    0.1376    2.3016   -2.0218 O   0  0  0  0  0  0  0  0  0  0  0  0
   -0.4180    1.4596   -1.0633 N   0  0  0  0  0  0  0  0  0  0  0  0
   -0.0253    0.2947   -1.0454 C   0  0  0  0  0  3  0  0  0  0  0  0
   -0.3007    3.1395   -1.8524 H   0  0  0  0  0  0  0  0  0  0  0  0
    0.7269   -0.2302   -1.6294 H   0  0  0  0  0  0  0  0  0  0  0  0
  1  2  1  0
  1  4  1  0
  2  3  2  3
  3  5  1  0
  6  7  1  0
  6  9  1  0
  7  8  2  3
  8 10  1  0
M  RAD  1   8   2
M  END
>  <reaction>  (3) 
rmg_rxn_15383

>  <type>  (3) 
ts

>  <mol_properties>  (3) 
{"0": {"label": "*1", "atom_type": "O2s"}, "1": {"label": "*0", "atom_type": "N3d"}, "3": {"label": "*2", "atom_type": "H0"}, "6": {"label": "*4", "atom_type": "N3d"}, "7": {"label": "*3", "atom_type": "Cd"}}

$$$$
