
     RDKit          3D

  7  6  0  0  0  0  0  0  0  0999 V2000
    0.3765   -0.7082   -0.8965 C   0  0  0  0  0  0  0  0  0  0  0  0
    0.1910   -0.1089    0.4269 N   0  0  0  0  0  0  0  0  0  0  0  0
   -0.5676    0.8211    0.4855 N   0  0  0  0  0  0  0  0  0  0  0  0
    1.4388   -0.6526   -1.1351 H   0  0  0  0  0  0  0  0  0  0  0  0
    0.1051   -1.7614   -0.8203 H   0  0  0  0  0  0  0  0  0  0  0  0
   -0.2210   -0.2063   -1.6595 H   0  0  0  0  0  0  0  0  0  0  0  0
   -0.5721    1.1193    1.4818 H   0  0  0  0  0  0  0  0  0  0  0  0
  1  2  1  0
  1  4  1  0
  1  5  1  0
  1  6  1  0
  2  3  2  3
  3  7  1  0
M  END
>  <reaction>  (1) 
rmg_rxn_14108

>  <type>  (1) 
r1h

>  <mol_properties>  (1) 
{"2": {"label": "donator", "atom_type": "N3d"}, "6": {"label": "d_hydrogen", "atom_type": "H0"}}

>  <electro_map>  (1) 
{"6": {"R": null, "A": null, "D": null}, "2": {"R": 1.0399999763415406, "A": null, "D": null}, "1": {"R": 1.201608618755263, "A": 105.7463598414682, "D": null}, "0": {"R": 1.4646252278412983, "A": 150.14796355206443, "D": 0.6324803404581278}, "3": {"R": 1.0902095713949485, "A": 107.47025029748794, "D": 122.02236791152154}, "4": {"R": 1.7627766006620218, "A": 36.05623147934505, "D": 115.63484479590112}, "5": {"R": 1.7969968008141335, "A": 60.627841030193444, "D": 33.64808838310708}}

$$$$

     RDKit          3D

 10  9  0  0  0  0  0  0  0  0999 V2000
   -1.1939    1.3824   -1.5420 H   0  0  0  0  0  0  0  0  0  0  0  0
   -1.0290    1.4979   -0.4850 C   0  0  0  0  0  0  0  0  0  0  0  0
   -0.1607    0.6671   -0.1116 C   0  0  0  0  0  0  0  0  0  0  0  0
    0.7563   -0.2664    0.1322 C   0  0  0  0  0  0  0  0  0  0  0  0
    0.4347   -1.6848    0.4811 C   0  0  0  0  0  0  0  0  0  0  0  0
   -1.6442    2.2662   -0.0503 H   0  0  0  0  0  0  0  0  0  0  0  0
    1.8021    0.0195    0.0816 H   0  0  0  0  0  0  0  0  0  0  0  0
   -0.6412   -1.8514    0.5032 H   0  0  0  0  0  0  0  0  0  0  0  0
    0.8488   -1.9519    1.4573 H   0  0  0  0  0  0  0  0  0  0  0  0
    0.8750   -2.3668   -0.2517 H   0  0  0  0  0  0  0  0  0  0  0  0
  1  2  1  0
  2  3  2  0
  2  6  1  0
  3  4  2  0
  4  5  1  0
  4  7  1  0
  5  8  1  0
  5  9  1  0
  5 10  1  0
M  END
>  <reaction>  (2) 
rmg_rxn_14108

>  <type>  (2) 
r2h

>  <mol_properties>  (2) 
{"0": {"label": "a_hydrogen", "atom_type": "H0"}, "1": {"label": "acceptor", "atom_type": "Cd"}}

>  <electro_map>  (2) 
{"0": {"R": null, "A": null, "D": null}, "1": {"R": 1.0760222121502183, "A": null, "D": null}, "2": {"R": 1.2583573387500404, "A": 109.04895243481475, "D": null}, "3": {"R": 1.331057016058583, "A": 140.79885848051683, "D": 179.33338557708285}, "4": {"R": 1.4956168667181173, "A": 124.03769408673995, "D": 275.0209995309442}, "5": {"R": 4.4960231162322035, "A": 40.401891589151944, "D": 350.8429948757337}, "6": {"R": 4.1160389059913856, "A": 29.472551661601322, "D": 355.4722493171318}, "7": {"R": 3.1060854893186, "A": 71.00573705084737, "D": 1.6832915859942312}, "8": {"R": 1.7720773329081219, "A": 56.34703392277349, "D": 223.40750313315684}, "9": {"R": 1.7587661529862042, "A": 60.184021243580446, "D": 292.55806598377166}}

$$$$

     RDKit          3D

 16 14  0  0  0  0  0  0  0  0999 V2000
   -0.0228   -0.4895   -2.7721 C   0  0  0  0  0  0  0  0  0  0  0  0
   -0.2083    0.1098   -1.4486 N   0  0  0  0  0  0  0  0  0  0  0  0
   -0.9669    1.0398   -1.3900 N   0  0  0  0  0  0  0  0  0  0  0  0
    1.0395   -0.4338   -3.0106 H   0  0  0  0  0  0  0  0  0  0  0  0
   -0.2942   -1.5426   -2.6958 H   0  0  0  0  0  0  0  0  0  0  0  0
   -0.6203    0.0125   -3.5350 H   0  0  0  0  0  0  0  0  0  0  0  0
   -0.9720    1.3771   -0.2634 H   0  0  0  0  0  0  0  0  0  0  0  0
   -0.7452    1.5358    1.1904 C   0  0  0  0  0  0  0  0  0  0  0  0
    0.1231    0.7051    1.5637 C   0  0  0  0  0  0  0  0  0  0  0  0
    1.0400   -0.2285    1.8075 C   0  0  0  0  0  3  0  0  0  0  0  0
    0.7184   -1.6468    2.1565 C   0  0  0  0  0  0  0  0  0  0  0  0
   -1.3604    2.3041    1.6251 H   0  0  0  0  0  0  0  0  0  0  0  0
    2.0858    0.0575    1.7570 H   0  0  0  0  0  0  0  0  0  0  0  0
   -0.3574   -1.8135    2.1786 H   0  0  0  0  0  0  0  0  0  0  0  0
    1.1325   -1.9139    3.1326 H   0  0  0  0  0  0  0  0  0  0  0  0
    1.1588   -2.3288    1.4237 H   0  0  0  0  0  0  0  0  0  0  0  0
  1  2  1  0
  1  4  1  0
  1  5  1  0
  1  6  1  0
  2  3  2  3
  3  7  1  0
  8  9  3  0
  8 12  1  0
  9 10  1  0
 10 11  1  0
 10 13  1  0
 11 14  1  0
 11 15  1  0
 11 16  1  0
M  RAD  1  10   2
M  END
>  <reaction>  (3) 
rmg_rxn_14108

>  <type>  (3) 
ts

>  <mol_properties>  (3) 
{"1": {"label": "*0", "atom_type": "N3d"}, "2": {"label": "*1", "atom_type": "N3d"}, "6": {"label": "*2", "atom_type": "H0"}, "7": {"label": "*3", "atom_type": "Ct"}, "8": {"label": "*4", "atom_type": "Ct"}}

$$$$
