
     RDKit          3D

  9  8  0  0  0  0  0  0  0  0999 V2000
   -0.4549   -1.2043    0.4244 O   0  0  0  0  0  0  0  0  0  0  0  0
   -0.8625   -0.1488   -0.2311 N   0  0  0  0  0  0  0  0  0  0  0  0
    1.3713    0.8002    0.0943 C   0  0  0  0  0  0  0  0  0  0  0  0
   -0.0374    0.8037   -0.4034 C   0  0  0  0  0  0  0  0  0  0  0  0
    1.8868    1.7185   -0.1810 H   0  0  0  0  0  0  0  0  0  0  0  0
    1.9185   -0.0516   -0.3168 H   0  0  0  0  0  0  0  0  0  0  0  0
    1.3916    0.6942    1.1817 H   0  0  0  0  0  0  0  0  0  0  0  0
   -0.4317    1.6495   -0.9532 H   0  0  0  0  0  0  0  0  0  0  0  0
   -1.2304   -1.7702    0.4239 H   0  0  0  0  0  0  0  0  0  0  0  0
  1  2  1  0
  1  9  1  0
  2  4  2  3
  3  4  1  0
  3  5  1  0
  3  6  1  0
  3  7  1  0
  4  8  1  0
M  END
>  <reaction>  (1) 
rmg_rxn_14022

>  <type>  (1) 
r1h

>  <mol_properties>  (1) 
{"0": {"label": "donator", "atom_type": "O2s"}, "8": {"label": "d_hydrogen", "atom_type": "H0"}}

>  <electro_map>  (1) 
{"8": {"R": null, "A": null, "D": null}, "0": {"R": 0.9600000227987764, "A": null, "D": null}, "1": {"R": 1.3076317738637535, "A": 102.92850915099817, "D": null}, "3": {"R": 1.2718981466600598, "A": 149.616591799127, "D": 0.24561184449365886}, "2": {"R": 1.4940316353733403, "A": 124.39132711198347, "D": 359.96263884572136}, "4": {"R": 1.0884836111451415, "A": 111.11982363658981, "D": 179.48767019170396}, "5": {"R": 1.775550759524787, "A": 35.5846900344151, "D": 238.12079372488733}, "6": {"R": 1.754756050435304, "A": 60.37189818841193, "D": 322.56716163787326}, "7": {"R": 2.9655873367603127, "A": 72.94800526035563, "D": 59.48426168510113}}

$$$$

     RDKit          3D

 10  9  0  0  0  0  0  0  0  0999 V2000
   -1.0150    1.4880   -0.0696 C   0  0  0  0  0  0  0  0  0  0  0  0
   -0.2827    0.3384   -0.6795 C   0  0  0  0  0  0  0  0  0  0  0  0
    0.3231   -0.6157    0.0203 C   0  0  0  0  0  0  0  0  0  0  0  0
    1.0371   -1.4124    0.6910 C   0  0  0  0  0  0  0  0  0  0  0  0
   -0.5699    2.4305   -0.3992 H   0  0  0  0  0  0  0  0  0  0  0  0
   -0.9790    1.4493    1.0175 H   0  0  0  0  0  0  0  0  0  0  0  0
   -2.0603    1.4965   -0.3897 H   0  0  0  0  0  0  0  0  0  0  0  0
   -0.2464    0.2755   -1.7626 H   0  0  0  0  0  0  0  0  0  0  0  0
    2.0106   -0.9670    0.8152 H   0  0  0  0  0  0  0  0  0  0  0  0
    0.8894   -2.3800    1.1421 H   0  0  0  0  0  0  0  0  0  0  0  0
  1  2  1  0
  1  5  1  0
  1  6  1  0
  1  7  1  0
  2  3  2  0
  2  8  1  0
  3  4  2  0
  4  9  1  0
  4 10  1  0
M  END
>  <reaction>  (2) 
rmg_rxn_14022

>  <type>  (2) 
r2h

>  <mol_properties>  (2) 
{"3": {"label": "acceptor", "atom_type": "Cd"}, "8": {"label": "a_hydrogen", "atom_type": "H0"}}

>  <electro_map>  (2) 
{"8": {"R": null, "A": null, "D": null}, "3": {"R": 1.0777626534402525, "A": null, "D": null}, "2": {"R": 1.262659436724493, "A": 108.1343328380405, "D": null}, "1": {"R": 1.3292233581570712, "A": 139.3275537899033, "D": 179.28980060979865}, "0": {"R": 1.4933010559908013, "A": 124.12873225070192, "D": 274.6682318240563}, "4": {"R": 1.0931330439433546, "A": 109.93308667233819, "D": 120.9912093256015}, "5": {"R": 1.7711525872363933, "A": 35.62668915025723, "D": 237.95566868020506}, "6": {"R": 1.7752852036134086, "A": 59.46698230066402, "D": 322.68581891492516}, "7": {"R": 2.581890431313905, "A": 88.90983851292063, "D": 67.08875019089467}, "9": {"R": 4.096168327925883, "A": 97.14061842114428, "D": 41.25144764406452}}

$$$$

     RDKit          3D

 18 16  0  0  0  0  0  0  0  0999 V2000
    1.3538   -0.9767    0.6553 O   0  0  0  0  0  0  0  0  0  0  0  0
    0.9462    0.0788   -0.0002 N   0  0  0  0  0  0  0  0  0  0  0  0
    3.1801    1.0278    0.3252 C   0  0  0  0  0  0  0  0  0  0  0  0
   -2.8719    0.6599   -0.2571 C   0  0  0  0  0  0  0  0  0  0  0  0
    1.7714    1.0313   -0.1724 C   0  0  0  0  0  0  0  0  0  0  0  0
   -2.1396   -0.4898   -0.8670 C   0  0  0  0  0  3  0  0  0  0  0  0
   -1.5339   -1.4439   -0.1672 C   0  0  0  0  0  0  0  0  0  0  0  0
   -0.8199   -2.2406    0.5035 C   0  0  0  0  0  0  0  0  0  0  0  0
    3.6956    1.9461    0.0499 H   0  0  0  0  0  0  0  0  0  0  0  0
    3.7272    0.1760   -0.0859 H   0  0  0  0  0  0  0  0  0  0  0  0
    3.2004    0.9218    1.4126 H   0  0  0  0  0  0  0  0  0  0  0  0
   -2.4268    1.6023   -0.5866 H   0  0  0  0  0  0  0  0  0  0  0  0
   -2.8359    0.6211    0.8300 H   0  0  0  0  0  0  0  0  0  0  0  0
   -3.9172    0.6683   -0.5772 H   0  0  0  0  0  0  0  0  0  0  0  0
    1.3771    1.8771   -0.7222 H   0  0  0  0  0  0  0  0  0  0  0  0
   -2.1033   -0.5527   -1.9501 H   0  0  0  0  0  0  0  0  0  0  0  0
    0.3643   -1.6987    0.6546 H   0  0  0  0  0  0  0  0  0  0  0  0
   -0.9676   -3.2081    0.9546 H   0  0  0  0  0  0  0  0  0  0  0  0
  1  2  1  0
  1 17  1  0
  2  5  2  3
  3  5  1  0
  3  9  1  0
  3 10  1  0
  3 11  1  0
  4  6  1  0
  4 12  1  0
  4 13  1  0
  4 14  1  0
  5 15  1  0
  6  7  1  0
  6 16  1  0
  7  8  3  0
  8 18  1  0
M  RAD  1   6   2
M  END
>  <reaction>  (3) 
rmg_rxn_14022

>  <type>  (3) 
ts

>  <mol_properties>  (3) 
{"0": {"label": "*1", "atom_type": "O2s"}, "1": {"label": "*0", "atom_type": "N3d"}, "6": {"label": "*4", "atom_type": "Ct"}, "7": {"label": "*3", "atom_type": "Ct"}, "16": {"label": "*2", "atom_type": "H0"}}

$$$$
