
     RDKit          3D

 14 13  0  0  0  0  0  0  0  0999 V2000
   -0.3449   -0.5032   -1.8528 C   0  0  0  0  0  0  0  0  0  0  0  0
   -0.0179   -0.6742   -0.3749 C   0  0  0  0  0  0  0  0  0  0  0  0
    0.0257    0.6311    0.3818 C   0  0  0  0  0  0  0  0  0  0  0  0
    0.3164    0.5297    1.8569 C   0  0  0  0  0  0  0  0  0  0  0  0
    0.3843    0.1434   -2.3464 H   0  0  0  0  0  0  0  0  0  0  0  0
   -1.3280   -0.0455   -1.9842 H   0  0  0  0  0  0  0  0  0  0  0  0
   -0.3496   -1.4614   -2.3744 H   0  0  0  0  0  0  0  0  0  0  0  0
   -0.7633   -1.3342    0.0874 H   0  0  0  0  0  0  0  0  0  0  0  0
    0.9437   -1.1849   -0.2571 H   0  0  0  0  0  0  0  0  0  0  0  0
   -0.8328    1.2699    0.1589 H   0  0  0  0  0  0  0  0  0  0  0  0
    0.8539    1.1976   -0.0516 H   0  0  0  0  0  0  0  0  0  0  0  0
    1.2505   -0.0090    2.0288 H   0  0  0  0  0  0  0  0  0  0  0  0
   -0.4824   -0.0074    2.3798 H   0  0  0  0  0  0  0  0  0  0  0  0
    0.4050    1.5165    2.3151 H   0  0  0  0  0  0  0  0  0  0  0  0
  1  2  1  0
  1  5  1  0
  1  6  1  0
  1  7  1  0
  2  3  1  0
  2  8  1  0
  2  9  1  0
  3  4  1  0
  3 10  1  0
  3 11  1  0
  4 12  1  0
  4 13  1  0
  4 14  1  0
M  END
>  <reaction>  (1) 
rmg_rxn_2741

>  <type>  (1) 
r1h

>  <mol_properties>  (1) 
{"2": {"label": "donator", "atom_type": "Cs"}, "10": {"label": "d_hydrogen", "atom_type": "H0"}}

>  <electro_map>  (1) 
{"10": {"R": null, "A": null, "D": null}, "2": {"R": 1.0929582727569493, "A": null, "D": null}, "1": {"R": 1.5094887700454451, "A": 105.73682467603544, "D": null}, "0": {"R": 1.523296799642481, "A": 97.99647974821158, "D": 123.52189611742217}, "3": {"R": 3.907245966780422, "A": 21.90114652869683, "D": 358.8680400701847}, "4": {"R": 4.221568882458949, "A": 14.801315389291458, "D": 125.42757937247642}, "5": {"R": 1.7603896174713436, "A": 77.83666881084767, "D": 36.268981115210096}, "6": {"R": 1.7647230826900535, "A": 60.087859171972006, "D": 256.52779330504313}, "7": {"R": 2.4994814334919253, "A": 69.49111218642093, "D": 103.05956336490033}, "8": {"R": 1.747750675957022, "A": 69.427634005414, "D": 243.34529966737472}, "9": {"R": 3.058541678695483, "A": 58.29694348368527, "D": 96.21846573463746}, "11": {"R": 3.077711048466305, "A": 49.90680251170437, "D": 104.90690966625873}, "12": {"R": 1.768125266017469, "A": 57.0988327431172, "D": 247.3693333152318}, "13": {"R": 1.7647230826900535, "A": 60.0435460998409, "D": 295.3980052646529}}

$$$$

     RDKit          3D

  9  8  0  0  0  0  0  0  0  0999 V2000
   -1.1586    1.2651   -0.3852 C   0  0  0  0  0  0  0  0  0  0  0  0
   -0.1196    0.2720   -0.8198 C   0  0  0  0  0  0  0  0  0  0  0  0
    0.5888   -0.7315    0.5231 S   0  0  0  0  0  0  0  0  0  0  0  0
   -0.8419    1.9368    0.4109 H   0  0  0  0  0  0  0  0  0  0  0  0
   -1.6191    1.8043   -1.2124 H   0  0  0  0  0  0  0  0  0  0  0  0
    0.7018    0.7565   -1.3536 H   0  0  0  0  0  0  0  0  0  0  0  0
   -0.5481   -0.4613   -1.5067 H   0  0  0  0  0  0  0  0  0  0  0  0
    1.0755    0.2892    1.2415 H   0  0  0  0  0  0  0  0  0  0  0  0
   -1.9975    0.7258    0.0524 H   0  0  0  0  0  0  0  0  0  0  0  0
  1  2  1  0
  1  4  1  0
  1  5  1  0
  1  9  1  0
  2  3  1  0
  2  6  1  0
  2  7  1  0
  3  8  1  0
M  END
>  <reaction>  (2) 
rmg_rxn_2741

>  <type>  (2) 
r2h

>  <mol_properties>  (2) 
{"0": {"label": "acceptor", "atom_type": "Cs"}, "8": {"label": "a_hydrogen", "atom_type": "H0"}}

>  <electro_map>  (2) 
{"8": {"R": null, "A": null, "D": null}, "0": {"R": 1.0890888621397432, "A": null, "D": null}, "1": {"R": 1.5015743259119054, "A": 108.76594172793368, "D": null}, "2": {"R": 1.81994500768812, "A": 99.16485622657932, "D": 125.84927562500937}, "7": {"R": 1.339688261479917, "A": 96.71858090021514, "D": 300.4698036887985}, "3": {"R": 2.661008006677692, "A": 92.4401639988665, "D": 30.247565639655864}, "4": {"R": 1.8046491214254898, "A": 123.06627198746479, "D": 329.0365074799598}, "5": {"R": 2.5504147323237936, "A": 71.82375016120352, "D": 335.1720088550852}, "6": {"R": 1.7517715751285106, "A": 68.96764835948258, "D": 111.4975673122831}}

$$$$

     RDKit          3D

 22 20  0  0  0  0  0  0  0  0999 V2000
    0.4811    1.7036   -0.3299 C   0  0  0  0  0  3  0  0  0  0  0  0
    1.5201    0.7104   -0.7645 C   0  0  0  0  0  0  0  0  0  0  0  0
    2.2285   -0.2930    0.5784 S   0  0  0  0  0  0  0  0  0  0  0  0
    0.7978    2.3753    0.4662 H   0  0  0  0  0  0  0  0  0  0  0  0
    0.0206    2.2428   -1.1571 H   0  0  0  0  0  0  0  0  0  0  0  0
    2.3416    1.1950   -1.2984 H   0  0  0  0  0  0  0  0  0  0  0  0
    1.0916   -0.0228   -1.4514 H   0  0  0  0  0  0  0  0  0  0  0  0
    2.7152    0.7277    1.2967 H   0  0  0  0  0  0  0  0  0  0  0  0
   -1.9506   -0.7966   -1.4878 C   0  0  0  0  0  0  0  0  0  0  0  0
   -1.6236   -0.9676   -0.0099 C   0  0  0  0  0  0  0  0  0  0  0  0
   -1.5801    0.3378    0.7468 C   0  0  0  0  0  0  0  0  0  0  0  0
   -1.2893    0.2363    2.2219 C   0  0  0  0  0  0  0  0  0  0  0  0
   -1.2214   -0.1500   -1.9814 H   0  0  0  0  0  0  0  0  0  0  0  0
   -2.9337   -0.3389   -1.6192 H   0  0  0  0  0  0  0  0  0  0  0  0
   -1.9554   -1.7548   -2.0093 H   0  0  0  0  0  0  0  0  0  0  0  0
   -2.3690   -1.6276    0.4524 H   0  0  0  0  0  0  0  0  0  0  0  0
   -0.6620   -1.4783    0.1079 H   0  0  0  0  0  0  0  0  0  0  0  0
   -2.4385    0.9765    0.5239 H   0  0  0  0  0  0  0  0  0  0  0  0
   -0.5864    1.0173    0.2269 H   0  0  0  0  0  0  0  0  0  0  0  0
   -0.3552   -0.3024    2.3938 H   0  0  0  0  0  0  0  0  0  0  0  0
   -2.0881   -0.3008    2.7448 H   0  0  0  0  0  0  0  0  0  0  0  0
   -1.2007    1.2231    2.6801 H   0  0  0  0  0  0  0  0  0  0  0  0
  1  2  1  0
  1  4  1  0
  1  5  1  0
  2  3  1  0
  2  6  1  0
  2  7  1  0
  3  8  1  0
  9 10  1  0
  9 13  1  0
  9 14  1  0
  9 15  1  0
 10 11  1  0
 10 16  1  0
 10 17  1  0
 11 12  1  0
 11 18  1  0
 11 19  1  0
 12 20  1  0
 12 21  1  0
 12 22  1  0
M  RAD  1   1   2
M  END
>  <reaction>  (3) 
rmg_rxn_2741

>  <type>  (3) 
ts

>  <mol_properties>  (3) 
{"0": {"label": "*3", "atom_type": "Cs"}, "1": {"label": "*4", "atom_type": "Cs"}, "9": {"label": "*0", "atom_type": "Cs"}, "10": {"label": "*1", "atom_type": "Cs"}, "18": {"label": "*2", "atom_type": "H0"}}

$$$$
