
     RDKit          3D

 10  9  0  0  0  0  0  0  0  0999 V2000
    0.3009   -0.5739   -1.8505 C   0  0  0  0  0  0  0  0  0  0  0  0
    0.1976   -0.2732   -0.5756 C   0  0  0  0  0  0  0  0  0  0  0  0
    0.1815   -0.0633    0.6868 C   0  0  0  0  0  0  0  0  0  0  0  0
   -0.6171    0.8251    1.5735 C   0  0  0  0  0  0  0  0  0  0  0  0
    0.9671   -0.0231   -2.5039 H   0  0  0  0  0  0  0  0  0  0  0  0
   -0.3059   -1.3561   -2.2918 H   0  0  0  0  0  0  0  0  0  0  0  0
    0.9154   -0.6547    1.2344 H   0  0  0  0  0  0  0  0  0  0  0  0
   -1.1626    0.2360    2.3136 H   0  0  0  0  0  0  0  0  0  0  0  0
   -1.3355    1.4137    1.0019 H   0  0  0  0  0  0  0  0  0  0  0  0
    0.0361    1.5096    2.1187 H   0  0  0  0  0  0  0  0  0  0  0  0
  1  2  2  0
  1  5  1  0
  1  6  1  0
  2  3  2  0
  3  4  1  0
  3  7  1  0
  4  8  1  0
  4  9  1  0
  4 10  1  0
M  END
>  <reaction>  (1) 
rmg_rxn_13899

>  <type>  (1) 
r1h

>  <mol_properties>  (1) 
{"2": {"label": "donator", "atom_type": "Cd"}, "6": {"label": "d_hydrogen", "atom_type": "H0"}}

>  <electro_map>  (1) 
{"6": {"R": null, "A": null, "D": null}, "2": {"R": 1.0900000456713745, "A": null, "D": null}, "1": {"R": 1.2798749010972914, "A": 113.45808370528509, "D": null}, "0": {"R": 1.3139018338170383, "A": 144.36342864822117, "D": 180.46735108835682}, "3": {"R": 3.8109593014251857, "A": 12.917922006260856, "D": 177.1101267403633}, "4": {"R": 4.455787050401465, "A": 12.130493473902888, "D": 97.89630532418565}, "5": {"R": 1.8553352388232132, "A": 77.77238117727312, "D": 9.055519495344276}, "7": {"R": 4.9475410827503925, "A": 89.65838543140529, "D": 356.90314026081376}, "8": {"R": 1.7713573540652465, "A": 62.71056915031649, "D": 55.91124362862513}, "9": {"R": 1.7713573540652465, "A": 59.57027379171921, "D": 251.90155256437126}}

$$$$

     RDKit          3D

  9  8  0  0  0  0  0  0  0  0999 V2000
   -0.4386    0.5086    1.1000 C   0  0  0  0  0  0  0  0  0  0  0  0
    0.5273    0.1858   -0.0029 C   0  0  0  0  0  0  0  0  0  0  0  0
   -0.0109   -0.6884   -0.9691 O   0  0  0  0  0  0  0  0  0  0  0  0
   -0.0733    1.2066    1.8509 H   0  0  0  0  0  0  0  0  0  0  0  0
   -0.9640   -0.3483    1.5153 H   0  0  0  0  0  0  0  0  0  0  0  0
    0.8883    1.1143   -0.4652 H   0  0  0  0  0  0  0  0  0  0  0  0
    1.4042   -0.3235    0.4104 H   0  0  0  0  0  0  0  0  0  0  0  0
   -0.6901   -0.2151   -1.4594 H   0  0  0  0  0  0  0  0  0  0  0  0
   -1.2284    1.0680    0.6031 H   0  0  0  0  0  0  0  0  0  0  0  0
  1  2  1  0
  1  4  1  0
  1  5  1  0
  1  9  1  0
  2  3  1  0
  2  6  1  0
  2  7  1  0
  3  8  1  0
M  END
>  <reaction>  (2) 
rmg_rxn_13899

>  <type>  (2) 
r2h

>  <mol_properties>  (2) 
{"0": {"label": "acceptor", "atom_type": "Cs"}, "8": {"label": "a_hydrogen", "atom_type": "H0"}}

>  <electro_map>  (2) 
{"8": {"R": null, "A": null, "D": null}, "0": {"R": 1.0879483164860304, "A": null, "D": null}, "1": {"R": 1.5011974958883247, "A": 104.00942304991922, "D": null}, "2": {"R": 1.409731306893444, "A": 98.16990075251674, "D": 122.0001081794501}, "7": {"R": 0.9622071105405682, "A": 108.27918993078495, "D": 69.34451434956802}, "3": {"R": 3.655074753942685, "A": 67.08749860281256, "D": 336.8514992714576}, "4": {"R": 1.8230778722782257, "A": 54.48832702463072, "D": 286.0292083794255}, "5": {"R": 3.0809963408203584, "A": 54.52848705373956, "D": 17.233337333276587}, "6": {"R": 1.760715782741904, "A": 57.91722697490147, "D": 102.85659505053727}}

$$$$

     RDKit          3D

 18 16  0  0  0  0  0  0  0  0999 V2000
    0.9375   -0.5664    1.5346 C   0  0  0  0  0  3  0  0  0  0  0  0
    1.9034   -0.8892    0.4317 C   0  0  0  0  0  0  0  0  0  0  0  0
    1.3652   -1.7635   -0.5345 O   0  0  0  0  0  0  0  0  0  0  0  0
    1.3028    0.1315    2.2855 H   0  0  0  0  0  0  0  0  0  0  0  0
    0.4121   -1.4234    1.9499 H   0  0  0  0  0  0  0  0  0  0  0  0
    2.2644    0.0392   -0.0305 H   0  0  0  0  0  0  0  0  0  0  0  0
    2.7803   -1.3986    0.8450 H   0  0  0  0  0  0  0  0  0  0  0  0
    0.6860   -1.2901   -1.0248 H   0  0  0  0  0  0  0  0  0  0  0  0
   -0.8219    0.3385   -2.2865 C   0  0  0  0  0  0  0  0  0  0  0  0
   -0.9251    0.6391   -1.0116 C   0  0  0  0  0  0  0  0  0  0  0  0
   -0.9413    0.8491    0.2508 C   0  0  0  0  0  0  0  0  0  0  0  0
   -1.7399    1.7375    1.1375 C   0  0  0  0  0  0  0  0  0  0  0  0
   -0.1557    0.8892   -2.9399 H   0  0  0  0  0  0  0  0  0  0  0  0
   -1.4287   -0.4437   -2.7278 H   0  0  0  0  0  0  0  0  0  0  0  0
   -0.0718    0.1484    0.8997 H   0  0  0  0  0  0  0  0  0  0  0  0
   -2.2853    1.1483    1.8776 H   0  0  0  0  0  0  0  0  0  0  0  0
   -2.4583    2.3261    0.5659 H   0  0  0  0  0  0  0  0  0  0  0  0
   -1.0867    2.4220    1.6827 H   0  0  0  0  0  0  0  0  0  0  0  0
  1  2  1  0
  1  4  1  0
  1  5  1  0
  2  3  1  0
  2  6  1  0
  2  7  1  0
  3  8  1  0
  9 10  2  0
  9 13  1  0
  9 14  1  0
 10 11  2  0
 11 12  1  0
 11 15  1  0
 12 16  1  0
 12 17  1  0
 12 18  1  0
M  RAD  1   1   2
M  END
>  <reaction>  (3) 
rmg_rxn_13899

>  <type>  (3) 
ts

>  <mol_properties>  (3) 
{"0": {"label": "*3", "atom_type": "Cs"}, "1": {"label": "*4", "atom_type": "Cs"}, "9": {"label": "*0", "atom_type": "Cdd"}, "10": {"label": "*1", "atom_type": "Cd"}, "14": {"label": "*2", "atom_type": "H0"}}

$$$$
