
     RDKit          3D

 10  9  0  0  0  0  0  0  0  0999 V2000
   -1.0913   -1.6272   -0.1741 C   0  0  0  0  0  0  0  0  0  0  0  0
   -0.2669   -0.6168    0.0053 C   0  0  0  0  0  0  0  0  0  0  0  0
    0.5941    0.2999    0.2153 C   0  0  0  0  0  0  0  0  0  0  0  0
    0.6823    1.7598   -0.0438 C   0  0  0  0  0  0  0  0  0  0  0  0
   -1.0683   -2.2140   -1.0846 H   0  0  0  0  0  0  0  0  0  0  0  0
   -1.8309   -1.8868    0.5738 H   0  0  0  0  0  0  0  0  0  0  0  0
    1.5139   -0.0471    0.6862 H   0  0  0  0  0  0  0  0  0  0  0  0
    0.7468    2.3130    0.8957 H   0  0  0  0  0  0  0  0  0  0  0  0
   -0.1849    2.1198   -0.5995 H   0  0  0  0  0  0  0  0  0  0  0  0
    1.5852    1.9903   -0.6132 H   0  0  0  0  0  0  0  0  0  0  0  0
  1  2  2  0
  1  5  1  0
  1  6  1  0
  2  3  2  0
  3  4  1  0
  3  7  1  0
  4  8  1  0
  4  9  1  0
  4 10  1  0
M  END
>  <reaction>  (1) 
rmg_rxn_13857

>  <type>  (1) 
r1h

>  <mol_properties>  (1) 
{"2": {"label": "donator", "atom_type": "Cd"}, "6": {"label": "d_hydrogen", "atom_type": "H0"}}

>  <electro_map>  (1) 
{"6": {"R": null, "A": null, "D": null}, "2": {"R": 1.089999936305053, "A": null, "D": null}, "1": {"R": 1.2750656858989398, "A": 114.33620746056017, "D": null}, "0": {"R": 1.316362872668351, "A": 145.77860722533177, "D": 179.78350309058908}, "3": {"R": 3.825497842939908, "A": 12.936824079681077, "D": 183.5664350317062}, "4": {"R": 4.465293988398976, "A": 12.144513950766779, "D": 99.28303735766875}, "5": {"R": 1.85444616147137, "A": 78.21434192021071, "D": 8.530903495680521}, "7": {"R": 4.938251679580427, "A": 89.63820549404016, "D": 357.5039555353297}, "8": {"R": 1.772255255584953, "A": 65.0329010140066, "D": 51.83821320976077}, "9": {"R": 1.774911880992258, "A": 59.34911361274774, "D": 251.85958369650083}}

$$$$

     RDKit          3D

 15 14  0  0  0  0  0  0  0  0999 V2000
   -1.7263    0.3171    0.6590 H   0  0  0  0  0  0  0  0  0  0  0  0
   -0.2578    0.1732   -2.1264 C   0  0  0  0  0  0  0  0  0  0  0  0
    0.8347   -0.0972   -1.1052 C   0  0  0  0  0  0  0  0  0  0  0  0
    0.6096    0.7320    0.4877 S   0  0  0  0  0  0  0  0  0  0  0  0
   -0.8277   -0.0460    1.1568 C   0  0  0  0  0  0  0  0  0  0  0  0
   -0.9708   -1.5440    1.0830 C   0  0  0  0  0  0  0  0  0  0  0  0
   -0.0281   -0.3350   -3.0656 H   0  0  0  0  0  0  0  0  0  0  0  0
   -1.2285   -0.1816   -1.7784 H   0  0  0  0  0  0  0  0  0  0  0  0
   -0.3445    1.2416   -2.3279 H   0  0  0  0  0  0  0  0  0  0  0  0
    1.7957    0.2796   -1.4590 H   0  0  0  0  0  0  0  0  0  0  0  0
    0.9597   -1.1668   -0.9330 H   0  0  0  0  0  0  0  0  0  0  0  0
   -0.9639    0.3564    2.1601 H   0  0  0  0  0  0  0  0  0  0  0  0
   -0.1449   -2.0510    1.5893 H   0  0  0  0  0  0  0  0  0  0  0  0
   -1.9057   -1.8464    1.5571 H   0  0  0  0  0  0  0  0  0  0  0  0
   -1.0050   -1.8945    0.0503 H   0  0  0  0  0  0  0  0  0  0  0  0
  1  5  1  0
  2  3  1  0
  2  7  1  0
  2  8  1  0
  2  9  1  0
  3  4  1  0
  3 10  1  0
  3 11  1  0
  4  5  1  0
  5  6  1  0
  5 12  1  0
  6 13  1  0
  6 14  1  0
  6 15  1  0
M  END
>  <reaction>  (2) 
rmg_rxn_13857

>  <type>  (2) 
r2h

>  <mol_properties>  (2) 
{"0": {"label": "a_hydrogen", "atom_type": "H0"}, "4": {"label": "acceptor", "atom_type": "Cs"}}

>  <electro_map>  (2) 
{"0": {"R": null, "A": null, "D": null}, "4": {"R": 1.0895693307029095, "A": null, "D": null}, "3": {"R": 1.7660268815695845, "A": 110.56824382855466, "D": null}, "2": {"R": 1.8098595558391217, "A": 96.06065003521817, "D": 108.8008420734512}, "1": {"R": 1.5197072062076586, "A": 114.86593470911798, "D": 66.63069946597211}, "5": {"R": 3.709105607673434, "A": 58.289043803194616, "D": 297.15875314850246}, "6": {"R": 4.422813289019373, "A": 11.718063173188085, "D": 266.3321322196621}, "7": {"R": 1.7667599971278418, "A": 36.43800844699417, "D": 303.6749771096284}, "8": {"R": 1.7632288244293717, "A": 60.156088079963496, "D": 115.216088648197}, "9": {"R": 2.5022267914830634, "A": 90.58850332122483, "D": 294.26229804203456}, "10": {"R": 1.751550532494938, "A": 90.7730981125002, "D": 1.2647073741122645}, "11": {"R": 3.9481067997517614, "A": 98.58296556728502, "D": 287.361405489993}, "12": {"R": 2.6062107659549696, "A": 47.071713138294456, "D": 206.36834848245638}, "13": {"R": 1.772946461996101, "A": 65.49614547694685, "D": 249.65080634338105}, "14": {"R": 1.7561144956396364, "A": 60.20531528883633, "D": 102.30542908154268}}

$$$$

     RDKit          3D

 24 22  0  0  0  0  0  0  0  0999 V2000
   -3.3888   -1.2985   -0.2531 C   0  0  0  0  0  0  0  0  0  0  0  0
   -2.5644   -0.2880   -0.0737 C   0  0  0  0  0  0  0  0  0  0  0  0
   -1.7034    0.6287    0.1363 C   0  0  0  0  0  3  0  0  0  0  0  0
   -1.6152    2.0885   -0.1228 C   0  0  0  0  0  0  0  0  0  0  0  0
   -3.3657   -1.8853   -1.1636 H   0  0  0  0  0  0  0  0  0  0  0  0
   -4.1284   -1.5581    0.4948 H   0  0  0  0  0  0  0  0  0  0  0  0
   -0.5719    0.2018    0.7155 H   0  0  0  0  0  0  0  0  0  0  0  0
   -1.5507    2.6417    0.8167 H   0  0  0  0  0  0  0  0  0  0  0  0
   -2.4824    2.4486   -0.6785 H   0  0  0  0  0  0  0  0  0  0  0  0
   -0.7123    2.3190   -0.6922 H   0  0  0  0  0  0  0  0  0  0  0  0
    1.1018   -0.0250   -1.9562 C   0  0  0  0  0  0  0  0  0  0  0  0
    2.1943   -0.2954   -0.9350 C   0  0  0  0  0  0  0  0  0  0  0  0
    1.9692    0.5338    0.6579 S   0  0  0  0  0  0  0  0  0  0  0  0
    0.5319   -0.2442    1.3270 C   0  0  0  0  0  0  0  0  0  0  0  0
    0.3888   -1.7422    1.2532 C   0  0  0  0  0  0  0  0  0  0  0  0
    1.3315   -0.5332   -2.8954 H   0  0  0  0  0  0  0  0  0  0  0  0
    0.1311   -0.3799   -1.6082 H   0  0  0  0  0  0  0  0  0  0  0  0
    1.0151    1.0434   -2.1577 H   0  0  0  0  0  0  0  0  0  0  0  0
    3.1553    0.0814   -1.2888 H   0  0  0  0  0  0  0  0  0  0  0  0
    2.3193   -1.3651   -0.7627 H   0  0  0  0  0  0  0  0  0  0  0  0
    0.3957    0.1582    2.3303 H   0  0  0  0  0  0  0  0  0  0  0  0
    1.2147   -2.2492    1.7596 H   0  0  0  0  0  0  0  0  0  0  0  0
   -0.5461   -2.0446    1.7273 H   0  0  0  0  0  0  0  0  0  0  0  0
    0.3545   -2.0927    0.2205 H   0  0  0  0  0  0  0  0  0  0  0  0
  1  2  2  0
  1  5  1  0
  1  6  1  0
  2  3  2  0
  3  4  1  0
  4  8  1  0
  4  9  1  0
  4 10  1  0
  7 14  1  0
 11 12  1  0
 11 16  1  0
 11 17  1  0
 11 18  1  0
 12 13  1  0
 12 19  1  0
 12 20  1  0
 13 14  1  0
 14 15  1  0
 14 21  1  0
 15 22  1  0
 15 23  1  0
 15 24  1  0
M  RAD  1   3   2
M  END
>  <reaction>  (3) 
rmg_rxn_13857

>  <type>  (3) 
ts

>  <mol_properties>  (3) 
{"1": {"label": "*4", "atom_type": "Cdd"}, "2": {"label": "*3", "atom_type": "Cd"}, "6": {"label": "*2", "atom_type": "H0"}, "12": {"label": "*0", "atom_type": "S2s"}, "13": {"label": "*1", "atom_type": "Cs"}}

$$$$
