
     RDKit          3D

 11 10  0  0  0  0  0  0  0  0999 V2000
   -0.1565    0.5525    1.1683 C   0  0  0  0  0  0  0  0  0  0  0  0
   -0.0908    0.4166   -0.3266 C   0  0  0  0  0  0  0  0  0  0  0  0
    0.2061   -0.9577   -0.8577 C   0  0  0  0  0  0  0  0  0  0  0  0
   -0.9762   -0.0422    1.5876 H   0  0  0  0  0  0  0  0  0  0  0  0
   -0.3105    1.5892    1.4730 H   0  0  0  0  0  0  0  0  0  0  0  0
    0.7700    0.1967    1.6279 H   0  0  0  0  0  0  0  0  0  0  0  0
    0.7968    0.9902   -0.5928 H   0  0  0  0  0  0  0  0  0  0  0  0
   -0.8861    0.9390   -0.8579 H   0  0  0  0  0  0  0  0  0  0  0  0
    0.2999   -0.9579   -1.9448 H   0  0  0  0  0  0  0  0  0  0  0  0
    1.1415   -1.3383   -0.4381 H   0  0  0  0  0  0  0  0  0  0  0  0
   -0.5852   -1.6681   -0.5917 H   0  0  0  0  0  0  0  0  0  0  0  0
  1  2  1  0
  1  4  1  0
  1  5  1  0
  1  6  1  0
  2  3  1  0
  2  7  1  0
  2  8  1  0
  3  9  1  0
  3 10  1  0
  3 11  1  0
M  END
>  <reaction>  (1) 
rmg_rxn_14194

>  <type>  (1) 
r1h

>  <mol_properties>  (1) 
{"1": {"label": "donator", "atom_type": "Cs"}, "6": {"label": "d_hydrogen", "atom_type": "H0"}}

>  <electro_map>  (1) 
{"6": {"R": null, "A": null, "D": null}, "1": {"R": 1.0897673439943776, "A": null, "D": null}, "0": {"R": 1.502506863392722, "A": 103.35578648631503, "D": null}, "2": {"R": 2.552819458551224, "A": 51.56795870277927, "D": 38.44463367304881}, "3": {"R": 2.866248369378659, "A": 22.38952623922853, "D": 236.68720255797825}, "4": {"R": 1.7656881945618368, "A": 94.83141065152033, "D": 16.63978286468332}, "5": {"R": 1.7693265750231786, "A": 59.82930207902441, "D": 296.63965597451215}, "7": {"R": 3.0778264709397254, "A": 53.904731833993225, "D": 71.32326913700683}, "8": {"R": 2.4872513919987083, "A": 84.97540361930527, "D": 174.76332096043916}, "9": {"R": 1.7672365648927553, "A": 91.06744567541146, "D": 2.4065711167855657}, "10": {"R": 1.764628508919188, "A": 60.00288177745144, "D": 71.36298677917112}}

$$$$

     RDKit          3D

 10  9  0  0  0  0  0  0  0  0999 V2000
   -2.1787    0.7231   -0.4333 H   0  0  0  0  0  0  0  0  0  0  0  0
    1.1845   -1.4881    0.1256 C   0  0  0  0  0  0  0  0  0  0  0  0
    0.4596   -0.4174    0.2517 C   0  0  0  0  0  0  0  0  0  0  0  0
   -0.2703    0.6643    0.3684 C   0  0  0  0  0  0  0  0  0  0  0  0
   -1.2059    1.1601   -0.6454 C   0  0  0  0  0  0  0  0  0  0  0  0
    2.1970   -1.4433   -0.2616 H   0  0  0  0  0  0  0  0  0  0  0  0
    0.8016   -2.4644    0.4050 H   0  0  0  0  0  0  0  0  0  0  0  0
   -0.2184    1.2005    1.3123 H   0  0  0  0  0  0  0  0  0  0  0  0
   -1.0089    0.8107   -1.6560 H   0  0  0  0  0  0  0  0  0  0  0  0
   -1.3903    2.2308   -0.6038 H   0  0  0  0  0  0  0  0  0  0  0  0
  1  5  1  0
  2  3  2  0
  2  6  1  0
  2  7  1  0
  3  4  2  0
  4  5  1  0
  4  8  1  0
  5  9  1  0
  5 10  1  0
M  END
>  <reaction>  (2) 
rmg_rxn_14194

>  <type>  (2) 
r2h

>  <mol_properties>  (2) 
{"0": {"label": "a_hydrogen", "atom_type": "H0"}, "4": {"label": "acceptor", "atom_type": "Cs"}}

>  <electro_map>  (2) 
{"0": {"R": null, "A": null, "D": null}, "4": {"R": 1.087303674449692, "A": null, "D": null}, "3": {"R": 1.4659013109491317, "A": 107.46818662885026, "D": null}, "2": {"R": 1.3101149641798544, "A": 120.16014090047425, "D": 251.36508623902668}, "1": {"R": 1.0, "A": 90.0, "D": 180.0}, "5": {"R": 1.2991663901031245, "A": 90.0, "D": 180.0}, "6": {"R": 1.0849543999613174, "A": 121.29597404406736, "D": 93.14666021869924}, "7": {"R": 1.8531837930085497, "A": 31.36621981922127, "D": 179.908034332504}, "8": {"R": 3.910943347470846, "A": 76.31841030913569, "D": 345.40160340575846}, "9": {"R": 3.096353379557739, "A": 74.11020158214386, "D": 80.88894017729886}}

$$$$

     RDKit          3D

 20 18  0  0  0  0  0  0  0  0999 V2000
   -2.0679    0.2586    1.3093 C   0  0  0  0  0  0  0  0  0  0  0  0
   -2.0022    0.1227   -0.1857 C   0  0  0  0  0  3  0  0  0  0  0  0
   -1.7053   -1.2516   -0.7168 C   0  0  0  0  0  0  0  0  0  0  0  0
   -2.8876   -0.3361    1.7285 H   0  0  0  0  0  0  0  0  0  0  0  0
   -2.2219    1.2952    1.6140 H   0  0  0  0  0  0  0  0  0  0  0  0
   -1.1414   -0.0972    1.7689 H   0  0  0  0  0  0  0  0  0  0  0  0
   -0.8751    0.8511   -0.5236 H   0  0  0  0  0  0  0  0  0  0  0  0
   -2.7975    0.6451   -0.7169 H   0  0  0  0  0  0  0  0  0  0  0  0
   -1.6115   -1.2519   -1.8039 H   0  0  0  0  0  0  0  0  0  0  0  0
   -0.7699   -1.6322   -0.2971 H   0  0  0  0  0  0  0  0  0  0  0  0
   -2.4967   -1.9620   -0.4507 H   0  0  0  0  0  0  0  0  0  0  0  0
    2.6895   -1.2697   -0.0087 C   0  0  0  0  0  0  0  0  0  0  0  0
    1.9646   -0.1990    0.1174 C   0  0  0  0  0  0  0  0  0  0  0  0
    1.2347    0.8827    0.2341 C   0  0  0  0  0  0  0  0  0  0  0  0
    0.2991    1.3786   -0.7796 C   0  0  0  0  0  0  0  0  0  0  0  0
    3.7021   -1.2249   -0.3958 H   0  0  0  0  0  0  0  0  0  0  0  0
    2.3066   -2.2460    0.2708 H   0  0  0  0  0  0  0  0  0  0  0  0
    1.2866    1.4190    1.1780 H   0  0  0  0  0  0  0  0  0  0  0  0
    0.4962    1.0291   -1.7903 H   0  0  0  0  0  0  0  0  0  0  0  0
    0.1147    2.4493   -0.7381 H   0  0  0  0  0  0  0  0  0  0  0  0
  1  2  1  0
  1  4  1  0
  1  5  1  0
  1  6  1  0
  2  3  1  0
  2  8  1  0
  3  9  1  0
  3 10  1  0
  3 11  1  0
  7 15  1  0
 12 13  2  0
 12 16  1  0
 12 17  1  0
 13 14  2  0
 14 15  1  0
 14 18  1  0
 15 19  1  0
 15 20  1  0
M  RAD  1   2   2
M  END
>  <reaction>  (3) 
rmg_rxn_14194

>  <type>  (3) 
ts

>  <mol_properties>  (3) 
{"0": {"label": "*4", "atom_type": "Cs"}, "1": {"label": "*3", "atom_type": "Cs"}, "6": {"label": "*2", "atom_type": "H0"}, "13": {"label": "*0", "atom_type": "Cd"}, "14": {"label": "*1", "atom_type": "Cs"}}

$$$$
