
     RDKit          3D

 10  9  0  0  0  0  0  0  0  0999 V2000
   -0.2579   -0.7602   -1.8015 C   0  0  0  0  0  0  0  0  0  0  0  0
    0.0148   -0.3336   -0.5868 C   0  0  0  0  0  0  0  0  0  0  0  0
    0.3513    0.0173    0.5895 C   0  0  0  0  0  0  0  0  0  0  0  0
   -0.1076    0.9792    1.6210 C   0  0  0  0  0  0  0  0  0  0  0  0
    0.1807   -0.2875   -2.6721 H   0  0  0  0  0  0  0  0  0  0  0  0
   -0.9440   -1.5825   -1.9649 H   0  0  0  0  0  0  0  0  0  0  0  0
    1.2144   -0.5241    0.9767 H   0  0  0  0  0  0  0  0  0  0  0  0
   -0.3689    0.4579    2.5443 H   0  0  0  0  0  0  0  0  0  0  0  0
   -0.9803    1.5357    1.2762 H   0  0  0  0  0  0  0  0  0  0  0  0
    0.6874    1.6862    1.8659 H   0  0  0  0  0  0  0  0  0  0  0  0
  1  2  2  0
  1  5  1  0
  1  6  1  0
  2  3  2  0
  3  4  1  0
  3  7  1  0
  4  8  1  0
  4  9  1  0
  4 10  1  0
M  END
>  <reaction>  (1) 
rmg_rxn_13886

>  <type>  (1) 
r1h

>  <mol_properties>  (1) 
{"2": {"label": "donator", "atom_type": "Cd"}, "6": {"label": "d_hydrogen", "atom_type": "H0"}}

>  <electro_map>  (1) 
{"6": {"R": null, "A": null, "D": null}, "2": {"R": 1.089999936305053, "A": null, "D": null}, "1": {"R": 1.2727942685199019, "A": 113.62104846201227, "D": null}, "0": {"R": 1.3160326962539943, "A": 145.41151958111624, "D": 179.94762170328758}, "3": {"R": 3.8421365716699567, "A": 12.287306336563239, "D": 180.28287773472493}, "4": {"R": 4.485324666021306, "A": 12.05419284794017, "D": 97.94902686784337}, "5": {"R": 1.8552945667625447, "A": 78.07436023440538, "D": 8.100769383317774}, "7": {"R": 4.982727543850368, "A": 89.37666063133508, "D": 356.6314232126838}, "8": {"R": 1.772999243002965, "A": 64.01421567150588, "D": 56.7610980739177}, "9": {"R": 1.7752043539264608, "A": 59.33686230497426, "D": 253.44561957502552}}

$$$$

     RDKit          3D

  9  8  0  0  0  0  0  0  0  0999 V2000
    0.0248   -0.4905   -1.8102 C   0  0  0  0  0  0  0  0  0  0  0  0
   -0.1824   -0.4657   -0.3792 C   0  0  0  0  0  0  0  0  0  0  0  0
    0.2812    0.4966    0.3239 N   0  0  0  0  0  0  0  0  0  0  0  0
   -0.0861    0.3699    1.6521 O   0  0  0  0  0  0  0  0  0  0  0  0
    0.0110   -1.4748   -2.2690 H   0  0  0  0  0  0  0  0  0  0  0  0
    0.8185    0.1565   -2.1720 H   0  0  0  0  0  0  0  0  0  0  0  0
   -0.7816   -1.2416    0.0975 H   0  0  0  0  0  0  0  0  0  0  0  0
    0.3387    1.1209    2.0707 H   0  0  0  0  0  0  0  0  0  0  0  0
   -0.8513   -0.0472   -2.2742 H   0  0  0  0  0  0  0  0  0  0  0  0
  1  2  1  0
  1  5  1  0
  1  6  1  0
  1  9  1  0
  2  3  2  3
  2  7  1  0
  3  4  1  0
  4  8  1  0
M  END
>  <reaction>  (2) 
rmg_rxn_13886

>  <type>  (2) 
r2h

>  <mol_properties>  (2) 
{"0": {"label": "acceptor", "atom_type": "Cs"}, "8": {"label": "a_hydrogen", "atom_type": "H0"}}

>  <electro_map>  (2) 
{"8": {"R": null, "A": null, "D": null}, "0": {"R": 1.0860315734952368, "A": null, "D": null}, "1": {"R": 1.4461659978607333, "A": 107.46548122412351, "D": null}, "2": {"R": 1.2788021616211378, "A": 118.17745066131972, "D": 102.62873991421942}, "3": {"R": 1.3838933395260746, "A": 111.25512389390339, "D": 176.7506963877304}, "7": {"R": 0.9589832251516623, "A": 103.27985480559117, "D": 178.2151293659079}, "4": {"R": 5.067405490379733, "A": 36.52341515169652, "D": 351.79146576529763}, "5": {"R": 1.8227712373397533, "A": 57.814760185701594, "D": 167.75113001078176}, "6": {"R": 3.108868428280282, "A": 53.731133203201466, "D": 352.59274571332423}}

$$$$

     RDKit          3D

 18 16  0  0  0  0  0  0  0  0999 V2000
    0.9946   -0.8846   -0.1421 C   0  0  0  0  0  0  0  0  0  0  0  0
    0.7873   -0.8598    1.2889 C   0  0  0  0  0  0  0  0  0  0  0  0
    1.2509    0.1025    1.9920 N   0  0  0  0  0  0  0  0  0  0  0  0
    0.8836   -0.0242    3.3202 O   0  0  0  0  0  0  0  0  0  0  0  0
    0.9807   -1.8689   -0.6009 H   0  0  0  0  0  0  0  0  0  0  0  0
    1.7882   -0.2376   -0.5039 H   0  0  0  0  0  0  0  0  0  0  0  0
    0.1881   -1.6357    1.7656 H   0  0  0  0  0  0  0  0  0  0  0  0
    1.3084    0.7268    3.7388 H   0  0  0  0  0  0  0  0  0  0  0  0
   -1.7552   -0.4497   -3.5803 C   0  0  0  0  0  0  0  0  0  0  0  0
   -1.4825   -0.0231   -2.3656 C   0  0  0  0  0  0  0  0  0  0  0  0
   -1.1460    0.3279   -1.1893 C   0  0  0  0  0  3  0  0  0  0  0  0
   -1.6049    1.2897   -0.1578 C   0  0  0  0  0  0  0  0  0  0  0  0
   -1.3167    0.0230   -4.4509 H   0  0  0  0  0  0  0  0  0  0  0  0
   -2.4414   -1.2720   -3.7437 H   0  0  0  0  0  0  0  0  0  0  0  0
   -0.0796   -0.3411   -0.7109 H   0  0  0  0  0  0  0  0  0  0  0  0
   -1.8663    0.7685    0.7655 H   0  0  0  0  0  0  0  0  0  0  0  0
   -2.4776    1.8463   -0.5026 H   0  0  0  0  0  0  0  0  0  0  0  0
   -0.8100    1.9967    0.0871 H   0  0  0  0  0  0  0  0  0  0  0  0
  1  2  1  0
  1  5  1  0
  1  6  1  0
  1 15  1  0
  2  3  2  3
  2  7  1  0
  3  4  1  0
  4  8  1  0
  9 10  2  0
  9 13  1  0
  9 14  1  0
 10 11  2  0
 11 12  1  0
 12 16  1  0
 12 17  1  0
 12 18  1  0
M  RAD  1  11   2
M  END
>  <reaction>  (3) 
rmg_rxn_13886

>  <type>  (3) 
ts

>  <mol_properties>  (3) 
{"0": {"label": "*1", "atom_type": "Cs"}, "1": {"label": "*0", "atom_type": "Cd"}, "9": {"label": "*4", "atom_type": "Cdd"}, "10": {"label": "*3", "atom_type": "Cd"}, "14": {"label": "*2", "atom_type": "H0"}}

$$$$
