
     RDKit          3D

 10  9  0  0  0  0  0  0  0  0999 V2000
    0.2958   -1.8667    0.0294 C   0  0  0  0  0  0  0  0  0  0  0  0
    0.2037   -0.6134   -0.2150 C   0  0  0  0  0  0  0  0  0  0  0  0
   -0.0159    0.6549   -0.4711 C   0  0  0  0  0  0  0  0  0  0  0  0
   -0.3964    1.6744    0.5586 C   0  0  0  0  0  0  0  0  0  0  0  0
   -0.6070   -2.4535   -0.0634 H   0  0  0  0  0  0  0  0  0  0  0  0
    1.1623   -2.4525    0.3014 H   0  0  0  0  0  0  0  0  0  0  0  0
    0.0746    0.9922   -1.4990 H   0  0  0  0  0  0  0  0  0  0  0  0
    0.3283    2.4919    0.5828 H   0  0  0  0  0  0  0  0  0  0  0  0
   -0.4484    1.2316    1.5531 H   0  0  0  0  0  0  0  0  0  0  0  0
   -1.3705    2.1020    0.3114 H   0  0  0  0  0  0  0  0  0  0  0  0
  1  2  2  0
  1  5  1  0
  1  6  1  0
  2  3  2  0
  3  4  1  0
  3  7  1  0
  4  8  1  0
  4  9  1  0
  4 10  1  0
M  END
>  <reaction>  (1) 
rmg_rxn_14075

>  <type>  (1) 
r1h

>  <mol_properties>  (1) 
{"0": {"label": "donator", "atom_type": "Cd"}, "4": {"label": "d_hydrogen", "atom_type": "H0"}}

>  <electro_map>  (1) 
{"4": {"R": null, "A": null, "D": null}, "0": {"R": 1.0806799758685386, "A": null, "D": null}, "1": {"R": 1.2802179413267578, "A": 117.06881801317053, "D": null}, "2": {"R": 1.3124757037865844, "A": 146.0218938888124, "D": 181.43154791732385}, "3": {"R": 1.4981021796291938, "A": 124.47272791306185, "D": 82.61249214233202}, "5": {"R": 4.418856503769196, "A": 40.08440098928875, "D": 13.039448644711888}, "6": {"R": 4.036130331515388, "A": 29.985280988671835, "D": 5.933228009260366}, "7": {"R": 2.5782253361453202, "A": 96.30161283127696, "D": 22.036207578616086}, "8": {"R": 1.77005064627824, "A": 89.15489348730644, "D": 317.465488863598}, "9": {"R": 1.774696138726684, "A": 59.687931102488925, "D": 293.06647489785706}}

$$$$

     RDKit          3D

 14 13  0  0  0  0  0  0  0  0999 V2000
    2.3747   -1.7770    0.1221 H   0  0  0  0  0  0  0  0  0  0  0  0
    1.4450   -2.3206   -0.0316 C   0  0  0  0  0  0  0  0  0  0  0  0
    0.4077   -1.2926   -0.3878 C   0  0  0  0  0  0  0  0  0  0  0  0
    0.1200   -0.3478    0.7661 C   0  0  0  0  0  0  0  0  0  0  0  0
   -1.0764    0.4160    0.5349 O   0  0  0  0  0  0  0  0  0  0  0  0
   -0.9726    1.5176   -0.1974 C   0  0  0  0  0  0  0  0  0  0  0  0
    0.0272    1.9564   -0.6879 O   0  0  0  0  0  0  0  0  0  0  0  0
    1.7114   -3.0008   -0.8362 H   0  0  0  0  0  0  0  0  0  0  0  0
    1.2929   -2.8350    0.9162 H   0  0  0  0  0  0  0  0  0  0  0  0
   -0.5289   -1.7914   -0.6652 H   0  0  0  0  0  0  0  0  0  0  0  0
    0.7311   -0.7141   -1.2564 H   0  0  0  0  0  0  0  0  0  0  0  0
    0.9573    0.3290    0.9361 H   0  0  0  0  0  0  0  0  0  0  0  0
   -0.0867   -0.9045    1.6796 H   0  0  0  0  0  0  0  0  0  0  0  0
   -1.9628    1.9847   -0.2876 H   0  0  0  0  0  0  0  0  0  0  0  0
  1  2  1  0
  2  3  1  0
  2  8  1  0
  2  9  1  0
  3  4  1  0
  3 10  1  0
  3 11  1  0
  4  5  1  0
  4 12  1  0
  4 13  1  0
  5  6  1  0
  6  7  2  0
  6 14  1  0
M  END
>  <reaction>  (2) 
rmg_rxn_14075

>  <type>  (2) 
r2h

>  <mol_properties>  (2) 
{"0": {"label": "a_hydrogen", "atom_type": "H0"}, "1": {"label": "acceptor", "atom_type": "Cs"}}

>  <electro_map>  (2) 
{"0": {"R": null, "A": null, "D": null}, "1": {"R": 1.0879004322205779, "A": null, "D": null}, "2": {"R": 1.5031884003590092, "A": 106.34774855831861, "D": null}, "3": {"R": 1.5189137123316232, "A": 97.88355913434205, "D": 121.31743929864379}, "4": {"R": 1.438137908042065, "A": 111.45567537591378, "D": 193.71261794691839}, "5": {"R": 1.3269097546532767, "A": 117.68157506516133, "D": 276.0992795854576}, "6": {"R": 1.1968998062312113, "A": 126.5727733560447, "D": 359.50041164294777}, "7": {"R": 5.2376545667032515, "A": 86.17291093450665, "D": 28.34662542012686}, "8": {"R": 1.8092346374146238, "A": 79.13140728393971, "D": 305.50554354158027}, "9": {"R": 2.6284589231001507, "A": 67.29601285474666, "D": 43.750785033151296}, "10": {"R": 1.759994712084716, "A": 87.0745418760848, "D": 299.5655381000766}, "11": {"R": 2.4385950611976477, "A": 91.50177413547316, "D": 295.7709291663764}, "12": {"R": 1.7788772171861251, "A": 91.41602237810307, "D": 9.498275218930402}, "13": {"R": 3.967043652505143, "A": 64.23047766289685, "D": 280.7206939178559}}

$$$$

     RDKit          3D

 23 21  0  0  0  0  0  0  0  0999 V2000
    2.4145   -1.3043    0.1355 C   0  0  0  0  0  0  0  0  0  0  0  0
    2.3225   -0.0510   -0.1090 C   0  0  0  0  0  0  0  0  0  0  0  0
    2.1028    1.2173   -0.3651 C   0  0  0  0  0  0  0  0  0  0  0  0
    1.7224    2.2368    0.6647 C   0  0  0  0  0  0  0  0  0  0  0  0
    1.3340   -2.0066    0.0243 H   0  0  0  0  0  0  0  0  0  0  0  0
    3.2810   -1.8901    0.4075 H   0  0  0  0  0  0  0  0  0  0  0  0
    2.1934    1.5546   -1.3929 H   0  0  0  0  0  0  0  0  0  0  0  0
    2.4470    3.0544    0.6888 H   0  0  0  0  0  0  0  0  0  0  0  0
    1.6703    1.7940    1.6591 H   0  0  0  0  0  0  0  0  0  0  0  0
    0.7482    2.6644    0.4175 H   0  0  0  0  0  0  0  0  0  0  0  0
    0.1482   -2.6999   -0.1717 C   0  0  0  0  0  3  0  0  0  0  0  0
   -0.8890   -1.6719   -0.5279 C   0  0  0  0  0  0  0  0  0  0  0  0
   -1.1767   -0.7271    0.6260 C   0  0  0  0  0  0  0  0  0  0  0  0
   -2.3732    0.0367    0.3948 O   0  0  0  0  0  0  0  0  0  0  0  0
   -2.2693    1.1383   -0.3375 C   0  0  0  0  0  0  0  0  0  0  0  0
   -1.2695    1.5771   -0.8279 O   0  0  0  0  0  0  0  0  0  0  0  0
    0.4147   -3.3802   -0.9763 H   0  0  0  0  0  0  0  0  0  0  0  0
   -0.0039   -3.2144    0.7761 H   0  0  0  0  0  0  0  0  0  0  0  0
   -1.8256   -2.1707   -0.8053 H   0  0  0  0  0  0  0  0  0  0  0  0
   -0.5656   -1.0934   -1.3965 H   0  0  0  0  0  0  0  0  0  0  0  0
   -0.3394   -0.0503    0.7961 H   0  0  0  0  0  0  0  0  0  0  0  0
   -1.3834   -1.2839    1.5395 H   0  0  0  0  0  0  0  0  0  0  0  0
   -3.2595    1.6053   -0.4277 H   0  0  0  0  0  0  0  0  0  0  0  0
  1  2  2  0
  1  5  1  0
  1  6  1  0
  2  3  2  0
  3  4  1  0
  3  7  1  0
  4  8  1  0
  4  9  1  0
  4 10  1  0
 11 12  1  0
 11 17  1  0
 11 18  1  0
 12 13  1  0
 12 19  1  0
 12 20  1  0
 13 14  1  0
 13 21  1  0
 13 22  1  0
 14 15  1  0
 15 16  2  0
 15 23  1  0
M  RAD  1  11   2
M  END
>  <reaction>  (3) 
rmg_rxn_14075

>  <type>  (3) 
ts

>  <mol_properties>  (3) 
{"0": {"label": "*1", "atom_type": "Cd"}, "1": {"label": "*0", "atom_type": "Cdd"}, "4": {"label": "*2", "atom_type": "H0"}, "10": {"label": "*3", "atom_type": "Cs"}, "11": {"label": "*4", "atom_type": "Cs"}}

$$$$
