
     RDKit          3D

  6  5  0  0  0  0  0  0  0  0999 V2000
   -0.3244    0.5369    1.1008 C   0  0  0  0  0  0  0  0  0  0  0  0
    0.0668   -0.0341   -0.1471 C   0  0  0  0  0  0  0  0  0  0  0  0
    0.3357   -0.5556   -1.1376 N   0  0  0  0  0  0  0  0  0  0  0  0
   -1.0238   -0.1717    1.5343 H   0  0  0  0  0  0  0  0  0  0  0  0
    0.4838    0.6101    1.8228 H   0  0  0  0  0  0  0  0  0  0  0  0
   -0.9042    1.4492    0.9996 H   0  0  0  0  0  0  0  0  0  0  0  0
  1  2  1  0
  1  4  1  0
  1  5  1  0
  1  6  1  0
  2  3  3  0
M  END
>  <reaction>  (1) 
rmg_rxn_2748

>  <type>  (1) 
r1h

>  <mol_properties>  (1) 
{"0": {"label": "donator", "atom_type": "Cs"}, "3": {"label": "d_hydrogen", "atom_type": "H0"}}

>  <electro_map>  (1) 
{"3": {"R": null, "A": null, "D": null}, "0": {"R": 1.0859006697083124, "A": null, "D": null}, "1": {"R": 1.42703609898866, "A": 105.33922472287922, "D": null}, "2": {"R": 1.1513070308380828, "A": 144.67628423879427, "D": 179.9394435359857}, "4": {"R": 3.1850805637105415, "A": 17.331647820820848, "D": 253.16843232625885}, "5": {"R": 1.8188702677914959, "A": 73.30568181245161, "D": 342.5003394003944}}

$$$$

     RDKit          3D

  9  8  0  0  0  0  0  0  0  0999 V2000
    1.8310    0.2019    0.9420 H   0  0  0  0  0  0  0  0  0  0  0  0
    1.1038   -0.5482    1.2474 C   0  0  0  0  0  0  0  0  0  0  0  0
    0.2902   -0.8231    0.0176 C   0  0  0  0  0  0  0  0  0  0  0  0
   -0.6309    0.6113   -0.6115 S   0  0  0  0  0  0  0  0  0  0  0  0
    0.5734   -0.0721    2.0693 H   0  0  0  0  0  0  0  0  0  0  0  0
    1.7329   -1.3763    1.5705 H   0  0  0  0  0  0  0  0  0  0  0  0
   -0.4088   -1.6454    0.1889 H   0  0  0  0  0  0  0  0  0  0  0  0
    0.9358   -1.1250   -0.8096 H   0  0  0  0  0  0  0  0  0  0  0  0
   -1.4295    0.7620    0.4541 H   0  0  0  0  0  0  0  0  0  0  0  0
  1  2  1  0
  2  3  1  0
  2  5  1  0
  2  6  1  0
  3  4  1  0
  3  7  1  0
  3  8  1  0
  4  9  1  0
M  END
>  <reaction>  (2) 
rmg_rxn_2748

>  <type>  (2) 
r2h

>  <mol_properties>  (2) 
{"0": {"label": "a_hydrogen", "atom_type": "H0"}, "1": {"label": "acceptor", "atom_type": "Cs"}}

>  <electro_map>  (2) 
{"0": {"R": null, "A": null, "D": null}, "1": {"R": 1.0884386527980556, "A": null, "D": null}, "2": {"R": 1.4999968210822434, "A": 104.98946565815919, "D": null}, "3": {"R": 1.8170868941688185, "A": 98.1166248265981, "D": 125.56070747654823}, "8": {"R": 1.3401325237161532, "A": 96.63091499079583, "D": 296.0559430273356}, "4": {"R": 2.7048421708633956, "A": 89.93957675115367, "D": 33.80070972347093}, "5": {"R": 1.8149968411546862, "A": 122.03934728423252, "D": 323.2735391077411}, "6": {"R": 2.5627864584491054, "A": 71.92543801086467, "D": 337.36169092873786}, "7": {"R": 1.753759501207843, "A": 68.59749258514007, "D": 111.18335373060776}}

$$$$

     RDKit          3D

 14 12  0  0  0  0  0  0  0  0999 V2000
    1.6345    0.9574    0.7949 C   0  0  0  0  0  0  0  0  0  0  0  0
    2.0257    0.3864   -0.4530 C   0  0  0  0  0  0  0  0  0  0  0  0
    2.2946   -0.1352   -1.4435 N   0  0  0  0  0  0  0  0  0  0  0  0
    0.7825    0.0942    1.3230 H   0  0  0  0  0  0  0  0  0  0  0  0
    2.4427    1.0305    1.5169 H   0  0  0  0  0  0  0  0  0  0  0  0
    1.0547    1.8696    0.6937 H   0  0  0  0  0  0  0  0  0  0  0  0
   -0.1273   -0.8444    1.7050 C   0  0  0  0  0  3  0  0  0  0  0  0
   -0.9410   -1.1192    0.4752 C   0  0  0  0  0  0  0  0  0  0  0  0
   -1.8621    0.3152   -0.1539 S   0  0  0  0  0  0  0  0  0  0  0  0
   -0.6578   -0.3682    2.5270 H   0  0  0  0  0  0  0  0  0  0  0  0
    0.5017   -1.6724    2.0281 H   0  0  0  0  0  0  0  0  0  0  0  0
   -1.6400   -1.9415    0.6465 H   0  0  0  0  0  0  0  0  0  0  0  0
   -0.2954   -1.4211   -0.3520 H   0  0  0  0  0  0  0  0  0  0  0  0
   -2.6607    0.4659    0.9117 H   0  0  0  0  0  0  0  0  0  0  0  0
  1  2  1  0
  1  4  1  0
  1  5  1  0
  1  6  1  0
  2  3  3  0
  7  8  1  0
  7 10  1  0
  7 11  1  0
  8  9  1  0
  8 12  1  0
  8 13  1  0
  9 14  1  0
M  RAD  1   7   2
M  END
>  <reaction>  (3) 
rmg_rxn_2748

>  <type>  (3) 
ts

>  <mol_properties>  (3) 
{"0": {"label": "*1", "atom_type": "Cs"}, "1": {"label": "*0", "atom_type": "Ct"}, "3": {"label": "*2", "atom_type": "H0"}, "6": {"label": "*3", "atom_type": "Cs"}, "7": {"label": "*4", "atom_type": "Cs"}}

$$$$
