
     RDKit          3D

 10  9  0  0  0  0  0  0  0  0999 V2000
    1.3719   -1.1892   -0.5167 C   0  0  0  0  0  0  0  0  0  0  0  0
    0.4378   -0.5261    0.0412 C   0  0  0  0  0  0  0  0  0  0  0  0
   -0.4464    0.2580    0.6254 C   0  0  0  0  0  0  0  0  0  0  0  0
   -1.2690    1.2826   -0.0954 C   0  0  0  0  0  0  0  0  0  0  0  0
    2.3260   -0.6847   -0.5307 H   0  0  0  0  0  0  0  0  0  0  0  0
    1.3758   -2.1615   -0.9854 H   0  0  0  0  0  0  0  0  0  0  0  0
   -0.6020    0.1468    1.6945 H   0  0  0  0  0  0  0  0  0  0  0  0
   -1.0943    2.2776    0.3222 H   0  0  0  0  0  0  0  0  0  0  0  0
   -2.3363    1.0708    0.0095 H   0  0  0  0  0  0  0  0  0  0  0  0
   -1.0225    1.3086   -1.1557 H   0  0  0  0  0  0  0  0  0  0  0  0
  1  2  2  0
  1  5  1  0
  1  6  1  0
  2  3  2  0
  3  4  1  0
  3  7  1  0
  4  8  1  0
  4  9  1  0
  4 10  1  0
M  END
>  <reaction>  (1) 
rmg_rxn_14018

>  <type>  (1) 
r1h

>  <mol_properties>  (1) 
{"0": {"label": "donator", "atom_type": "Cd"}, "4": {"label": "d_hydrogen", "atom_type": "H0"}}

>  <electro_map>  (1) 
{"4": {"R": null, "A": null, "D": null}, "0": {"R": 1.0793360666786662, "A": null, "D": null}, "1": {"R": 1.274222056222599, "A": 114.23071907477255, "D": null}, "2": {"R": 1.318252400897231, "A": 144.64769702300893, "D": 181.15655882372644}, "3": {"R": 1.4987150092411035, "A": 124.17303900396884, "D": 81.8277076832308}, "5": {"R": 4.432734980155804, "A": 40.3470004489375, "D": 12.366788800928347}, "6": {"R": 4.052393387386977, "A": 29.939089815434297, "D": 6.292969431936754}, "7": {"R": 2.5818393653288765, "A": 102.22016134453496, "D": 342.3748142758214}, "8": {"R": 1.7596957143091552, "A": 70.3085605190967, "D": 84.23857128949795}, "9": {"R": 1.7720866162720936, "A": 60.10469623796487, "D": 259.34683307374246}}

$$$$

     RDKit          3D

  9  8  0  0  0  0  0  0  0  0999 V2000
    0.8476   -1.4367    0.5829 C   0  0  0  0  0  0  0  0  0  0  0  0
    0.0676   -0.6792   -0.4592 C   0  0  0  0  0  0  0  0  0  0  0  0
   -0.3946    0.9899   -0.0972 S   0  0  0  0  0  0  0  0  0  0  0  0
    1.0258   -2.4613    0.2503 H   0  0  0  0  0  0  0  0  0  0  0  0
    0.2933   -1.4811    1.5228 H   0  0  0  0  0  0  0  0  0  0  0  0
    1.8137   -0.9660    0.7813 H   0  0  0  0  0  0  0  0  0  0  0  0
    0.5044   -0.7006   -1.4565 H   0  0  0  0  0  0  0  0  0  0  0  0
   -0.9335    0.7478    1.1067 H   0  0  0  0  0  0  0  0  0  0  0  0
   -0.8683   -1.2248   -0.5707 H   0  0  0  0  0  0  0  0  0  0  0  0
  1  2  1  0
  1  4  1  0
  1  5  1  0
  1  6  1  0
  2  3  1  0
  2  7  1  0
  2  9  1  0
  3  8  1  0
M  END
>  <reaction>  (2) 
rmg_rxn_14018

>  <type>  (2) 
r2h

>  <mol_properties>  (2) 
{"1": {"label": "acceptor", "atom_type": "Cs"}, "8": {"label": "a_hydrogen", "atom_type": "H0"}}

>  <electro_map>  (2) 
{"8": {"R": null, "A": null, "D": null}, "1": {"R": 1.0889875542180831, "A": null, "D": null}, "2": {"R": 1.7694246710539627, "A": 105.60579514332706, "D": null}, "0": {"R": 2.809625385740423, "A": 46.63536403279104, "D": 324.6124302999327}, "7": {"R": 2.8668142798218086, "A": 27.305529606394895, "D": 231.27520960338646}, "3": {"R": 3.856249945592648, "A": 7.963092805207649, "D": 98.69757861210805}, "4": {"R": 1.765392727047693, "A": 33.59705138730754, "D": 80.73032727975128}, "5": {"R": 1.7683246869526896, "A": 60.17709086606633, "D": 285.2970795352447}, "6": {"R": 2.6062563230588767, "A": 87.57763572352842, "D": 64.37164255089249}}

$$$$

     RDKit          3D

 18 16  0  0  0  0  0  0  0  0999 V2000
    2.5546   -1.0647    0.6217 C   0  0  0  0  0  0  0  0  0  0  0  0
    1.7746   -0.3073   -0.4204 C   0  0  0  0  0  0  0  0  0  0  0  0
    1.3124    1.3619   -0.0584 S   0  0  0  0  0  0  0  0  0  0  0  0
    2.7329   -2.0893    0.2891 H   0  0  0  0  0  0  0  0  0  0  0  0
    2.0003   -1.1091    1.5616 H   0  0  0  0  0  0  0  0  0  0  0  0
    3.5208   -0.5940    0.8201 H   0  0  0  0  0  0  0  0  0  0  0  0
    2.2115   -0.3286   -1.4177 H   0  0  0  0  0  0  0  0  0  0  0  0
    0.7736    1.1198    1.1455 H   0  0  0  0  0  0  0  0  0  0  0  0
   -0.5598   -1.6039   -0.5400 C   0  0  0  0  0  0  0  0  0  0  0  0
   -1.4939   -0.9407    0.0180 C   0  0  0  0  0  0  0  0  0  0  0  0
   -2.3781   -0.1567    0.6021 C   0  0  0  0  0  3  0  0  0  0  0  0
   -3.2008    0.8680   -0.1187 C   0  0  0  0  0  0  0  0  0  0  0  0
    0.6249   -0.9774   -0.5574 H   0  0  0  0  0  0  0  0  0  0  0  0
   -0.5560   -2.5761   -1.0087 H   0  0  0  0  0  0  0  0  0  0  0  0
   -2.5338   -0.2678    1.6712 H   0  0  0  0  0  0  0  0  0  0  0  0
   -3.0261    1.8630    0.2989 H   0  0  0  0  0  0  0  0  0  0  0  0
   -4.2680    0.6562   -0.0138 H   0  0  0  0  0  0  0  0  0  0  0  0
   -2.9542    0.8939   -1.1789 H   0  0  0  0  0  0  0  0  0  0  0  0
  1  2  1  0
  1  4  1  0
  1  5  1  0
  1  6  1  0
  2  3  1  0
  2  7  1  0
  2 13  1  0
  3  8  1  0
  9 10  3  0
  9 14  1  0
 10 11  1  0
 11 12  1  0
 11 15  1  0
 12 16  1  0
 12 17  1  0
 12 18  1  0
M  RAD  1  11   2
M  END
>  <reaction>  (3) 
rmg_rxn_14018

>  <type>  (3) 
ts

>  <mol_properties>  (3) 
{"1": {"label": "*1", "atom_type": "Cs"}, "2": {"label": "*0", "atom_type": "S2s"}, "8": {"label": "*3", "atom_type": "Ct"}, "9": {"label": "*4", "atom_type": "Ct"}, "12": {"label": "*2", "atom_type": "H0"}}

$$$$
