
     RDKit          3D

 10  9  0  0  0  0  0  0  0  0999 V2000
   -0.1645    0.3660    1.8447 C   0  0  0  0  0  0  0  0  0  0  0  0
   -0.1282   -0.1129    0.6632 C   0  0  0  0  0  0  0  0  0  0  0  0
   -0.2057   -0.5166   -0.5879 C   0  0  0  0  0  0  0  0  0  0  0  0
    0.4636    0.1728   -1.7391 C   0  0  0  0  0  0  0  0  0  0  0  0
   -0.9710    1.0581    2.0339 H   0  0  0  0  0  0  0  0  0  0  0  0
    0.4797    0.2051    2.6960 H   0  0  0  0  0  0  0  0  0  0  0  0
   -0.7825   -1.4111   -0.8025 H   0  0  0  0  0  0  0  0  0  0  0  0
    1.1559   -0.5000   -2.2516 H   0  0  0  0  0  0  0  0  0  0  0  0
    1.0217    1.0466   -1.4042 H   0  0  0  0  0  0  0  0  0  0  0  0
   -0.2756    0.4976   -2.4765 H   0  0  0  0  0  0  0  0  0  0  0  0
  1  2  2  0
  1  5  1  0
  1  6  1  0
  2  3  2  0
  3  4  1  0
  3  7  1  0
  4  8  1  0
  4  9  1  0
  4 10  1  0
M  END
>  <reaction>  (1) 
rmg_rxn_14053

>  <type>  (1) 
r1h

>  <mol_properties>  (1) 
{"0": {"label": "donator", "atom_type": "Cd"}, "4": {"label": "d_hydrogen", "atom_type": "H0"}}

>  <electro_map>  (1) 
{"4": {"R": null, "A": null, "D": null}, "0": {"R": 1.0795404292633053, "A": null, "D": null}, "1": {"R": 1.275438480151195, "A": 115.10543922326784, "D": null}, "2": {"R": 1.316819349723497, "A": 144.07583537230397, "D": 180.8035097823451}, "3": {"R": 1.4994910489356088, "A": 124.20549337157595, "D": 85.58085310921452}, "5": {"R": 4.435189733736671, "A": 40.293892510548346, "D": 11.734971764883547}, "6": {"R": 4.055190332651873, "A": 29.92064884070574, "D": 5.8356872839502305}, "7": {"R": 2.586032923294866, "A": 96.29953538681798, "D": 21.912586664208032}, "8": {"R": 1.768721035022608, "A": 89.00932991483654, "D": 317.8137253002022}, "9": {"R": 1.7703863439958059, "A": 59.61554028727727, "D": 292.3405265660048}}

$$$$

     RDKit          3D

 15 14  0  0  0  0  0  0  0  0999 V2000
    1.2599   -0.4851    0.5470 H   0  0  0  0  0  0  0  0  0  0  0  0
   -1.1511   -1.7682    0.3261 C   0  0  0  0  0  0  0  0  0  0  0  0
   -0.7515   -0.5545    1.1577 C   0  0  0  0  0  0  0  0  0  0  0  0
    0.4105    0.2092    0.5862 C   0  0  0  0  0  0  0  0  0  0  0  0
    0.1822    0.6098   -0.7074 O   0  0  0  0  0  0  0  0  0  0  0  0
    1.1889    1.4362   -1.2416 C   0  0  0  0  0  0  0  0  0  0  0  0
   -0.3178   -2.4668    0.2367 H   0  0  0  0  0  0  0  0  0  0  0  0
   -1.9900   -2.2909    0.7875 H   0  0  0  0  0  0  0  0  0  0  0  0
   -1.4461   -1.4685   -0.6793 H   0  0  0  0  0  0  0  0  0  0  0  0
   -0.4770   -0.8637    2.1697 H   0  0  0  0  0  0  0  0  0  0  0  0
   -1.6059    0.1250    1.2584 H   0  0  0  0  0  0  0  0  0  0  0  0
    0.7777    1.0233    1.2245 H   0  0  0  0  0  0  0  0  0  0  0  0
    2.1532    0.9191   -1.2536 H   0  0  0  0  0  0  0  0  0  0  0  0
    1.2864    2.3605   -0.6594 H   0  0  0  0  0  0  0  0  0  0  0  0
    0.8971    1.6826   -2.2607 H   0  0  0  0  0  0  0  0  0  0  0  0
  1  4  1  0
  2  3  1  0
  2  7  1  0
  2  8  1  0
  2  9  1  0
  3  4  1  0
  3 10  1  0
  3 11  1  0
  4  5  1  0
  4 12  1  0
  5  6  1  0
  6 13  1  0
  6 14  1  0
  6 15  1  0
M  END
>  <reaction>  (2) 
rmg_rxn_14053

>  <type>  (2) 
r2h

>  <mol_properties>  (2) 
{"0": {"label": "a_hydrogen", "atom_type": "H0"}, "3": {"label": "acceptor", "atom_type": "Cs"}}

>  <electro_map>  (2) 
{"0": {"R": null, "A": null, "D": null}, "3": {"R": 1.0977555633904348, "A": null, "D": null}, "4": {"R": 1.373267773240816, "A": 106.23114761010913, "D": null}, "5": {"R": 1.4077948244193996, "A": 100.10879763692523, "D": 119.94258026260752}, "2": {"R": 3.672188603421551, "A": 19.25543722375786, "D": 353.4309768020967}, "1": {"R": 1.5245520793793397, "A": 102.3374862763881, "D": 40.19681336776797}, "6": {"R": 1.0911357700123592, "A": 110.74726434912085, "D": 78.27206097959541}, "7": {"R": 1.7694189444434012, "A": 35.80493471131134, "D": 121.52516515592743}, "8": {"R": 1.7673130574300204, "A": 59.80518759608049, "D": 37.20762896177815}, "9": {"R": 3.069477152086755, "A": 54.44771323930361, "D": 293.6710544408329}, "10": {"R": 1.7557062033440953, "A": 54.98270502987691, "D": 255.9949660916354}, "11": {"R": 2.5475050258118954, "A": 66.6630042823531, "D": 260.4139074042015}, "12": {"R": 2.8361891957974015, "A": 116.90023141788886, "D": 111.50938136827936}, "13": {"R": 1.783879798278065, "A": 56.19280833575439, "D": 96.01176275198843}, "14": {"R": 1.7819788596058466, "A": 59.95910762438796, "D": 234.79703364795307}}

$$$$

     RDKit          3D

 24 22  0  0  0  0  0  0  0  0999 V2000
    1.3446   -0.7936    0.9045 C   0  0  0  0  0  0  0  0  0  0  0  0
    1.3809   -1.2725   -0.2770 C   0  0  0  0  0  0  0  0  0  0  0  0
    1.3034   -1.6762   -1.5280 C   0  0  0  0  0  3  0  0  0  0  0  0
    1.9726   -0.9868   -2.6792 C   0  0  0  0  0  0  0  0  0  0  0  0
    0.3239    0.0822    1.1439 H   0  0  0  0  0  0  0  0  0  0  0  0
    1.9887   -0.9545    1.7558 H   0  0  0  0  0  0  0  0  0  0  0  0
    0.7266   -2.5707   -1.7427 H   0  0  0  0  0  0  0  0  0  0  0  0
    2.6650   -1.6596   -3.1918 H   0  0  0  0  0  0  0  0  0  0  0  0
    2.5308   -0.1130   -2.3443 H   0  0  0  0  0  0  0  0  0  0  0  0
    1.2335   -0.6620   -3.4167 H   0  0  0  0  0  0  0  0  0  0  0  0
   -2.2690   -1.0523    0.9314 C   0  0  0  0  0  0  0  0  0  0  0  0
   -1.8694    0.1614    1.7630 C   0  0  0  0  0  0  0  0  0  0  0  0
   -0.7074    0.9251    1.1914 C   0  0  0  0  0  0  0  0  0  0  0  0
   -0.9357    1.3257   -0.1021 O   0  0  0  0  0  0  0  0  0  0  0  0
    0.0710    2.1522   -0.6364 C   0  0  0  0  0  0  0  0  0  0  0  0
   -1.4356   -1.7509    0.8419 H   0  0  0  0  0  0  0  0  0  0  0  0
   -3.1079   -1.5749    1.3927 H   0  0  0  0  0  0  0  0  0  0  0  0
   -2.5640   -0.7526   -0.0740 H   0  0  0  0  0  0  0  0  0  0  0  0
   -1.5949   -0.1478    2.7750 H   0  0  0  0  0  0  0  0  0  0  0  0
   -2.7238    0.8409    1.8637 H   0  0  0  0  0  0  0  0  0  0  0  0
   -0.3402    1.7392    1.8297 H   0  0  0  0  0  0  0  0  0  0  0  0
    1.0353    1.6350   -0.6484 H   0  0  0  0  0  0  0  0  0  0  0  0
    0.1685    3.0765   -0.0542 H   0  0  0  0  0  0  0  0  0  0  0  0
   -0.2208    2.3985   -1.6555 H   0  0  0  0  0  0  0  0  0  0  0  0
  1  2  3  0
  1  6  1  0
  2  3  1  0
  3  4  1  0
  3  7  1  0
  4  8  1  0
  4  9  1  0
  4 10  1  0
  5 13  1  0
 11 12  1  0
 11 16  1  0
 11 17  1  0
 11 18  1  0
 12 13  1  0
 12 19  1  0
 12 20  1  0
 13 14  1  0
 13 21  1  0
 14 15  1  0
 15 22  1  0
 15 23  1  0
 15 24  1  0
M  RAD  1   3   2
M  END
>  <reaction>  (3) 
rmg_rxn_14053

>  <type>  (3) 
ts

>  <mol_properties>  (3) 
{"0": {"label": "*3", "atom_type": "Ct"}, "1": {"label": "*4", "atom_type": "Ct"}, "4": {"label": "*2", "atom_type": "H0"}, "12": {"label": "*1", "atom_type": "Cs"}, "13": {"label": "*0", "atom_type": "O2s"}}

$$$$
