
     RDKit          3D

 14 14  0  0  0  0  0  0  0  0999 V2000
    0.2241   -1.4145    0.1080 C   0  0  0  0  0  0  0  0  0  0  0  0
   -0.1400   -0.5731    1.3035 C   0  0  0  0  0  0  0  0  0  0  0  0
    0.2377    0.7766    1.0981 O   0  0  0  0  0  0  0  0  0  0  0  0
   -0.2865    1.2752   -0.0954 C   0  0  0  0  0  0  0  0  0  0  0  0
    0.1774    0.5898   -1.2191 O   0  0  0  0  0  0  0  0  0  0  0  0
   -0.2055   -0.7733   -1.1858 C   0  0  0  0  0  0  0  0  0  0  0  0
    1.3127   -1.4349    0.0816 H   0  0  0  0  0  0  0  0  0  0  0  0
   -0.0642   -2.4608    0.1999 H   0  0  0  0  0  0  0  0  0  0  0  0
   -1.2257   -0.6219    1.4933 H   0  0  0  0  0  0  0  0  0  0  0  0
    0.3720   -0.9085    2.2055 H   0  0  0  0  0  0  0  0  0  0  0  0
    0.0443    2.3071   -0.1871 H   0  0  0  0  0  0  0  0  0  0  0  0
   -1.3898    1.2254   -0.0625 H   0  0  0  0  0  0  0  0  0  0  0  0
    0.2592   -1.2512   -2.0484 H   0  0  0  0  0  0  0  0  0  0  0  0
   -1.2996   -0.8468   -1.3078 H   0  0  0  0  0  0  0  0  0  0  0  0
  1  2  1  0
  1  6  1  0
  1  7  1  0
  1  8  1  0
  2  3  1  0
  2  9  1  0
  2 10  1  0
  3  4  1  0
  4  5  1  0
  4 11  1  0
  4 12  1  0
  5  6  1  0
  6 13  1  0
  6 14  1  0
M  END
>  <reaction>  (1) 
rmg_rxn_2756

>  <type>  (1) 
r1h

>  <mol_properties>  (1) 
{"0": {"label": "donator", "atom_type": "Cs"}, "6": {"label": "d_hydrogen", "atom_type": "H0"}}

>  <electro_map>  (1) 
{"6": {"R": null, "A": null, "D": null}, "0": {"R": 1.0891575447543056, "A": null, "D": null}, "1": {"R": 1.5065593354358682, "A": 105.7368023422062, "D": null}, "2": {"R": 1.4165087032138268, "A": 97.07582593851929, "D": 240.4315780529974}, "3": {"R": 1.3955542818471929, "A": 111.36058240725578, "D": 53.62578794662319}, "4": {"R": 1.3955542818471929, "A": 112.85130596271468, "D": 298.0868942514767}, "5": {"R": 1.4162410582944467, "A": 111.33971646634828, "D": 61.94280244044116}, "7": {"R": 2.1881199639400526, "A": 137.7076826288779, "D": 307.1943893496971}, "8": {"R": 2.5304998534299954, "A": 74.55068539439986, "D": 55.61540395332386}, "9": {"R": 1.7725251656260719, "A": 70.9830836168681, "D": 247.37626761294572}, "10": {"R": 4.0215545692635395, "A": 63.78080633480958, "D": 101.59133602931378}, "11": {"R": 1.8006483182022874, "A": 62.83053402379972, "D": 354.6594241009536}, "12": {"R": 3.5772049566412667, "A": 90.5935290551001, "D": 286.73378434863395}, "13": {"R": 1.7725251656260719, "A": 37.317171649063326, "D": 187.86176531951423}}

$$$$

     RDKit          3D

  9  8  0  0  0  0  0  0  0  0999 V2000
   -1.2584   -1.2011    0.0526 C   0  0  0  0  0  0  0  0  0  0  0  0
   -0.8412    0.2346   -0.0523 C   0  0  0  0  0  0  0  0  0  0  0  0
    0.9696    0.4707    0.0318 S   0  0  0  0  0  0  0  0  0  0  0  0
   -1.0073   -1.8110   -0.8145 H   0  0  0  0  0  0  0  0  0  0  0  0
   -0.9705   -1.6880    0.9825 H   0  0  0  0  0  0  0  0  0  0  0  0
   -1.2322    0.8138    0.7842 H   0  0  0  0  0  0  0  0  0  0  0  0
   -1.2223    0.6950   -0.9617 H   0  0  0  0  0  0  0  0  0  0  0  0
    1.2714   -0.2122   -1.0803 H   0  0  0  0  0  0  0  0  0  0  0  0
   -2.3471   -1.2185    0.0716 H   0  0  0  0  0  0  0  0  0  0  0  0
  1  2  1  0
  1  4  1  0
  1  5  1  0
  1  9  1  0
  2  3  1  0
  2  6  1  0
  2  7  1  0
  3  8  1  0
M  END
>  <reaction>  (2) 
rmg_rxn_2756

>  <type>  (2) 
r2h

>  <mol_properties>  (2) 
{"0": {"label": "acceptor", "atom_type": "Cs"}, "8": {"label": "a_hydrogen", "atom_type": "H0"}}

>  <electro_map>  (2) 
{"8": {"R": null, "A": null, "D": null}, "0": {"R": 1.088958490076243, "A": null, "D": null}, "1": {"R": 1.4987168386829715, "A": 107.15122924620647, "D": null}, "2": {"R": 1.8280894610219134, "A": 142.9760463673516, "D": 353.2431505410824}, "7": {"R": 1.3395643471202432, "A": 96.84050714129408, "D": 62.933846865256655}, "3": {"R": 2.7963310011009974, "A": 91.66076709047339, "D": 332.476516562994}, "4": {"R": 1.8015701651099947, "A": 92.24405855688762, "D": 329.37359768300036}, "5": {"R": 2.5232320884976707, "A": 89.26705322895629, "D": 60.6748995291127}, "6": {"R": 1.7500314028510933, "A": 90.60195196440702, "D": 358.5099820900547}}

$$$$

     RDKit          3D

 22 21  0  0  0  0  0  0  0  0999 V2000
    1.1838   -1.3231    0.0565 C   0  0  0  0  0  0  0  0  0  0  0  0
    1.6010    0.1126   -0.0483 C   0  0  0  0  0  0  0  0  0  0  0  0
    3.4118    0.3487    0.0358 S   0  0  0  0  0  0  0  0  0  0  0  0
    1.4349   -1.9330   -0.8105 H   0  0  0  0  0  0  0  0  0  0  0  0
    1.4717   -1.8100    0.9865 H   0  0  0  0  0  0  0  0  0  0  0  0
    1.2100    0.6918    0.7882 H   0  0  0  0  0  0  0  0  0  0  0  0
    1.2199    0.5730   -0.9578 H   0  0  0  0  0  0  0  0  0  0  0  0
    3.7136   -0.3342   -1.0764 H   0  0  0  0  0  0  0  0  0  0  0  0
   -1.5065   -1.3193    0.1126 C   0  0  0  0  0  3  0  0  0  0  0  0
   -1.8706   -0.4779    1.3081 C   0  0  0  0  0  0  0  0  0  0  0  0
   -1.4929    0.8718    1.1028 O   0  0  0  0  0  0  0  0  0  0  0  0
   -2.0170    1.3704   -0.0907 C   0  0  0  0  0  0  0  0  0  0  0  0
   -1.5532    0.6851   -1.2144 O   0  0  0  0  0  0  0  0  0  0  0  0
   -1.9361   -0.6780   -1.1811 C   0  0  0  0  0  0  0  0  0  0  0  0
   -0.1577   -1.3446    0.0799 H   0  0  0  0  0  0  0  0  0  0  0  0
   -1.7948   -2.3656    0.2046 H   0  0  0  0  0  0  0  0  0  0  0  0
   -2.9562   -0.5267    1.4980 H   0  0  0  0  0  0  0  0  0  0  0  0
   -1.3586   -0.8133    2.2102 H   0  0  0  0  0  0  0  0  0  0  0  0
   -1.6863    2.4024   -0.1825 H   0  0  0  0  0  0  0  0  0  0  0  0
   -3.1204    1.3206   -0.0579 H   0  0  0  0  0  0  0  0  0  0  0  0
   -1.4714   -1.1560   -2.0437 H   0  0  0  0  0  0  0  0  0  0  0  0
   -3.0301   -0.7516   -1.3032 H   0  0  0  0  0  0  0  0  0  0  0  0
  1  2  1  0
  1  4  1  0
  1  5  1  0
  1 15  1  0
  2  3  1  0
  2  6  1  0
  2  7  1  0
  3  8  1  0
  9 10  1  0
  9 14  1  0
  9 16  1  0
 10 11  1  0
 10 17  1  0
 10 18  1  0
 11 12  1  0
 12 13  1  0
 12 19  1  0
 12 20  1  0
 13 14  1  0
 14 21  1  0
 14 22  1  0
M  RAD  1   9   2
M  END
>  <reaction>  (3) 
rmg_rxn_2756

>  <type>  (3) 
ts

>  <mol_properties>  (3) 
{"0": {"label": "*1", "atom_type": "Cs"}, "1": {"label": "*0", "atom_type": "Cs"}, "8": {"label": "*3", "atom_type": "Cs"}, "9": {"label": "*4", "atom_type": "Cs"}, "14": {"label": "*2", "atom_type": "H0"}}

$$$$
