
     RDKit          3D

 21 21  0  0  0  0  0  0  0  0999 V2000
    2.9076   -2.4356    0.0250 C   0  0  0  0  0  0  0  0  0  0  0  0
    2.3020   -1.0689    0.0436 C   0  0  0  0  0  0  0  0  0  0  0  0
    1.0020   -0.8189   -0.0078 C   0  0  0  0  0  0  0  0  0  0  0  0
    0.3938    0.5690    0.0114 C   0  0  0  0  0  0  0  0  0  0  0  0
   -0.4412    0.7540    1.2462 C   0  0  0  0  0  0  0  0  0  0  0  0
   -1.7707    0.8682    1.2170 C   0  0  0  0  0  0  0  0  0  0  0  0
   -2.5200    0.7924   -0.0358 C   0  0  0  0  0  0  0  0  0  0  0  0
   -1.7298    0.9148   -1.2546 C   0  0  0  0  0  0  0  0  0  0  0  0
   -0.3980    0.8021   -1.2425 C   0  0  0  0  0  0  0  0  0  0  0  0
    2.1400   -3.2072   -0.0395 H   0  0  0  0  0  0  0  0  0  0  0  0
    3.5837   -2.5517   -0.8262 H   0  0  0  0  0  0  0  0  0  0  0  0
    3.4993   -2.6133    0.9269 H   0  0  0  0  0  0  0  0  0  0  0  0
    2.9967   -0.2330    0.1031 H   0  0  0  0  0  0  0  0  0  0  0  0
    0.2789   -1.6284   -0.0732 H   0  0  0  0  0  0  0  0  0  0  0  0
    1.2258    1.2840    0.0406 H   0  0  0  0  0  0  0  0  0  0  0  0
    0.0893    0.7735    2.1913 H   0  0  0  0  0  0  0  0  0  0  0  0
   -2.3262    0.9792    2.1409 H   0  0  0  0  0  0  0  0  0  0  0  0
   -2.8148   -0.2546   -0.0786 H   0  0  0  0  0  0  0  0  0  0  0  0
   -3.4921    1.2821   -0.0436 H   0  0  0  0  0  0  0  0  0  0  0  0
   -2.2529    1.0546   -2.1932 H   0  0  0  0  0  0  0  0  0  0  0  0
    0.1631    0.8535   -2.1683 H   0  0  0  0  0  0  0  0  0  0  0  0
  1  2  1  0
  1 10  1  0
  1 11  1  0
  1 12  1  0
  2  3  2  3
  2 13  1  0
  3  4  1  0
  3 14  1  0
  4  5  1  0
  4  9  1  0
  4 15  1  0
  5  6  2  0
  5 16  1  0
  6  7  1  0
  6 17  1  0
  7  8  1  0
  7 18  1  0
  7 19  1  0
  8  9  2  0
  8 20  1  0
  9 21  1  0
M  END
>  <reaction>  (1) 
rmg_rxn_14504

>  <type>  (1) 
r1h

>  <mol_properties>  (1) 
{"6": {"label": "donator", "atom_type": "Cs"}, "17": {"label": "d_hydrogen", "atom_type": "H0"}}

>  <electro_map>  (1) 
{"17": {"R": null, "A": null, "D": null}, "6": {"R": 1.0885265416215515, "A": null, "D": null}, "5": {"R": 1.4617643413437145, "A": 102.85202568606269, "D": null}, "4": {"R": 1.3347104332163209, "A": 118.97227531009746, "D": 255.7552980265446}, "3": {"R": 1.502041778130729, "A": 123.10837024080824, "D": 1.3021168097437568}, "2": {"R": 1.5155114200152955, "A": 110.26152583213135, "D": 248.44456312219378}, "1": {"R": 1.3248066905098055, "A": 124.48061532762625, "D": 243.8558389933931}, "7": {"R": 4.677121485814369, "A": 20.500768931787526, "D": 314.0144029552082}, "8": {"R": 1.3366235232029777, "A": 26.20899566834407, "D": 173.34187704446953}, "0": {"R": 4.797524672261418, "A": 138.2299843296474, "D": 14.860779947855947}, "9": {"R": 1.0902880238229082, "A": 88.67652210264202, "D": 20.16930869537022}, "10": {"R": 1.7699184373069958, "A": 35.89916411260549, "D": 107.46266409870648}, "11": {"R": 1.7562097999614719, "A": 60.274097907813825, "D": 37.84974671468459}, "12": {"R": 2.568529432345329, "A": 69.92309732893405, "D": 258.9758687895114}, "13": {"R": 3.0601481535207706, "A": 76.68416725089808, "D": 85.11016793248179}, "14": {"R": 3.0646039003001455, "A": 44.77308187649761, "D": 160.1964725213003}, "15": {"R": 2.485490272713203, "A": 72.28212175621087, "D": 249.5987478935314}, "16": {"R": 2.4247395955696445, "A": 114.84260834963986, "D": 276.64949188729486}, "18": {"R": 2.494633063661759, "A": 119.60813134966678, "D": 10.193713982001327}, "19": {"R": 2.491544825999444, "A": 120.7943084419147, "D": 8.720129957540582}, "20": {"R": 2.424481472146768, "A": 119.62723953496901, "D": 351.16606219067876}}

$$$$

     RDKit          3D

  6  5  0  0  0  0  0  0  0  0999 V2000
   -1.1377   -0.0893    0.3564 C   0  0  0  0  0  3  0  0  0  0  0  0
    0.0269    0.3288    0.0202 N   0  0  0  0  0  0  0  0  0  0  0  0
    1.0216   -0.2933   -0.3535 O   0  0  0  0  0  1  0  0  0  0  0  0
   -1.8620    0.6536    0.6531 H   0  0  0  0  0  0  0  0  0  0  0  0
   -1.3609   -1.1482    0.3362 H   0  0  0  0  0  0  0  0  0  0  0  0
    0.1487    1.3599    0.0807 H   0  0  0  0  0  0  0  0  0  0  0  0
  1  2  1  0
  1  4  1  0
  1  5  1  0
  2  3  1  0
  2  6  1  0
M  CHG  2   1   1   3  -1
M  END
>  <reaction>  (2) 
rmg_rxn_14504

>  <type>  (2) 
r2h

>  <mol_properties>  (2) 
{"1": {"label": "acceptor", "atom_type": "N3s"}, "5": {"label": "a_hydrogen", "atom_type": "H0"}}

>  <electro_map>  (2) 
{"5": {"R": null, "A": null, "D": null}, "1": {"R": 1.040000033653699, "A": null, "D": null}, "2": {"R": 1.2312983546952163, "A": 115.08963046522233, "D": null}, "0": {"R": 2.2821600157111663, "A": 54.71147850812984, "D": 359.7529660014401}, "3": {"R": 1.0791548633789119, "A": 141.45439568559047, "D": 0.08846926150411803}, "4": {"R": 1.8968310054095188, "A": 28.695112152560345, "D": 180.01854373183644}}

$$$$

     RDKit          3D

 26 25  0  0  0  0  0  0  0  0999 V2000
   -3.4134   -1.6325    0.1698 C   0  0  0  0  0  0  0  0  0  0  0  0
   -2.2487   -1.2144   -0.1663 N   0  0  0  0  0  0  0  0  0  0  0  0
   -1.2541   -1.8366   -0.5401 O   0  0  0  0  0  1  0  0  0  0  0  0
   -4.1377   -0.8896    0.4665 H   0  0  0  0  0  0  0  0  0  0  0  0
   -3.6366   -2.6914    0.1496 H   0  0  0  0  0  0  0  0  0  0  0  0
    3.6931   -1.8525    0.0237 C   0  0  0  0  0  0  0  0  0  0  0  0
    3.0875   -0.4857    0.0423 C   0  0  0  0  0  0  0  0  0  0  0  0
    1.7875   -0.2358   -0.0091 C   0  0  0  0  0  0  0  0  0  0  0  0
    1.1792    1.1522    0.0102 C   0  0  0  0  0  0  0  0  0  0  0  0
    0.3443    1.3371    1.2450 C   0  0  0  0  0  0  0  0  0  0  0  0
   -0.9852    1.4513    1.2157 C   0  0  0  0  0  0  0  0  0  0  0  0
   -1.7346    1.3755   -0.0371 C   0  0  0  0  0  0  0  0  0  0  0  0
   -0.9443    1.4979   -1.2559 C   0  0  0  0  0  0  0  0  0  0  0  0
    0.3875    1.3852   -1.2438 C   0  0  0  0  0  0  0  0  0  0  0  0
    2.9255   -2.6241   -0.0408 H   0  0  0  0  0  0  0  0  0  0  0  0
    4.3691   -1.9686   -0.8274 H   0  0  0  0  0  0  0  0  0  0  0  0
    4.2847   -2.0302    0.9257 H   0  0  0  0  0  0  0  0  0  0  0  0
    3.7821    0.3502    0.1018 H   0  0  0  0  0  0  0  0  0  0  0  0
    1.0644   -1.0452   -0.0745 H   0  0  0  0  0  0  0  0  0  0  0  0
    2.0113    1.8672    0.0394 H   0  0  0  0  0  0  0  0  0  0  0  0
    0.8747    1.3567    2.1900 H   0  0  0  0  0  0  0  0  0  0  0  0
   -1.5408    1.5624    2.1396 H   0  0  0  0  0  0  0  0  0  0  0  0
   -2.0934    0.1010   -0.0892 H   0  0  0  0  0  0  0  0  0  0  0  0
   -2.7066    1.8653   -0.0449 H   0  0  0  0  0  0  0  0  0  0  0  0
   -1.4675    1.6378   -2.1944 H   0  0  0  0  0  0  0  0  0  0  0  0
    0.9485    1.4367   -2.1696 H   0  0  0  0  0  0  0  0  0  0  0  0
  1  2  2  3
  1  4  1  0
  1  5  1  0
  2  3  1  0
  6  7  1  0
  6 15  1  0
  6 16  1  0
  6 17  1  0
  7  8  2  3
  7 18  1  0
  8  9  1  0
  8 19  1  0
  9 10  1  0
  9 14  1  0
  9 20  1  0
 10 11  2  0
 10 21  1  0
 11 12  1  0
 11 22  1  0
 12 13  1  0
 12 23  1  0
 12 24  1  0
 13 14  2  0
 13 25  1  0
 14 26  1  0
M  RAD  1   3   2
M  END
>  <reaction>  (3) 
rmg_rxn_14504

>  <type>  (3) 
ts

>  <mol_properties>  (3) 
{"1": {"label": "*3", "atom_type": "N3d"}, "2": {"label": "*4", "atom_type": "O2s"}, "10": {"label": "*0", "atom_type": "Cd"}, "11": {"label": "*1", "atom_type": "Cs"}, "22": {"label": "*2", "atom_type": "H0"}}

$$$$
