
     RDKit          3D

 18 17  0  0  0  0  0  0  0  0999 V2000
   -3.0893   -0.2380    0.2487 C   0  0  0  0  0  0  0  0  0  0  0  0
   -1.6447   -0.5815    0.5003 C   0  0  0  0  0  0  0  0  0  0  0  0
   -0.6510    0.3145   -0.1773 C   0  0  0  0  0  0  0  0  0  0  0  0
    0.6497   -0.1046    0.1492 O   0  0  0  0  0  0  0  0  0  0  0  0
    1.6622    0.5848   -0.5442 C   0  0  0  0  0  0  0  0  0  0  0  0
    3.0021    0.0211   -0.1324 C   0  0  0  0  0  0  0  0  0  0  0  0
   -3.3513    0.7393    0.6674 H   0  0  0  0  0  0  0  0  0  0  0  0
   -3.7515   -0.9777    0.7001 H   0  0  0  0  0  0  0  0  0  0  0  0
   -3.3061   -0.2048   -0.8223 H   0  0  0  0  0  0  0  0  0  0  0  0
   -1.4924   -1.5617    0.0485 H   0  0  0  0  0  0  0  0  0  0  0  0
   -1.4036   -0.7391    1.5516 H   0  0  0  0  0  0  0  0  0  0  0  0
   -0.7961    1.3645    0.1297 H   0  0  0  0  0  0  0  0  0  0  0  0
   -0.7985    0.2794   -1.2690 H   0  0  0  0  0  0  0  0  0  0  0  0
    1.5123    0.4706   -1.6276 H   0  0  0  0  0  0  0  0  0  0  0  0
    1.6046    1.6591   -0.3186 H   0  0  0  0  0  0  0  0  0  0  0  0
    3.0530   -1.0458   -0.3543 H   0  0  0  0  0  0  0  0  0  0  0  0
    3.1610    0.1556    0.9383 H   0  0  0  0  0  0  0  0  0  0  0  0
    3.8057    0.5286   -0.6678 H   0  0  0  0  0  0  0  0  0  0  0  0
  1  2  1  0
  1  7  1  0
  1  8  1  0
  1  9  1  0
  2  3  1  0
  2 10  1  0
  2 11  1  0
  3  4  1  0
  3 12  1  0
  3 13  1  0
  4  5  1  0
  5  6  1  0
  5 14  1  0
  5 15  1  0
  6 16  1  0
  6 17  1  0
  6 18  1  0
M  END
>  <reaction>  (1) 
rmg_rxn_2757

>  <type>  (1) 
r1h

>  <mol_properties>  (1) 
{"1": {"label": "donator", "atom_type": "Cs"}, "9": {"label": "d_hydrogen", "atom_type": "H0"}}

>  <electro_map>  (1) 
{"9": {"R": null, "A": null, "D": null}, "1": {"R": 1.0899851170669952, "A": null, "D": null}, "2": {"R": 1.4998011457240217, "A": 104.91197718768707, "D": null}, "3": {"R": 1.4050442930957419, "A": 94.6262895940292, "D": 120.91608787588166}, "4": {"R": 1.4076030156192418, "A": 113.91306883497468, "D": 173.85039398887793}, "0": {"R": 4.887023184461963, "A": 30.483679216347955, "D": 356.44692334666064}, "5": {"R": 6.108800836690743, "A": 9.329363159608759, "D": 352.8393109723417}, "6": {"R": 6.443690906331393, "A": 9.531467043755441, "D": 60.74462224877315}, "7": {"R": 1.7632582338898897, "A": 96.74978702805579, "D": 21.658913210852074}, "8": {"R": 1.7645157562010705, "A": 60.01350627870734, "D": 286.7872571018819}, "10": {"R": 3.0886833239915226, "A": 54.30942008209536, "D": 69.29924305941232}, "11": {"R": 2.6106632730145685, "A": 65.5042330904554, "D": 210.05984265681093}, "12": {"R": 1.7703169197401314, "A": 86.33811078239769, "D": 305.5929433536955}, "13": {"R": 2.3462214345925667, "A": 93.98517291552795, "D": 247.40389589751456}, "14": {"R": 1.7705408041689676, "A": 89.602822715233, "D": 356.0887968543809}, "15": {"R": 3.068529072129496, "A": 54.848152807746594, "D": 118.55591174452505}, "16": {"R": 1.7680057914518204, "A": 54.63863496121294, "D": 179.00058182040783}, "17": {"R": 1.7703169197401314, "A": 60.14694349766691, "D": 294.3256693252033}}

$$$$

     RDKit          3D

  9  8  0  0  0  0  0  0  0  0999 V2000
   -1.5794    0.3196   -0.6939 C   0  0  0  0  0  0  0  0  0  0  0  0
   -0.1135    0.0402   -0.8645 C   0  0  0  0  0  0  0  0  0  0  0  0
    0.7859   -0.2183    0.6942 S   0  0  0  0  0  0  0  0  0  0  0  0
   -2.1034    0.5250   -1.6280 H   0  0  0  0  0  0  0  0  0  0  0  0
   -2.1082   -0.3986   -0.0709 H   0  0  0  0  0  0  0  0  0  0  0  0
    0.3769    0.8424   -1.4169 H   0  0  0  0  0  0  0  0  0  0  0  0
    0.0447   -0.8821   -1.4316 H   0  0  0  0  0  0  0  0  0  0  0  0
    0.7305    1.0616    1.0892 H   0  0  0  0  0  0  0  0  0  0  0  0
   -1.6869    1.2561   -0.1481 H   0  0  0  0  0  0  0  0  0  0  0  0
  1  2  1  0
  1  4  1  0
  1  5  1  0
  1  9  1  0
  2  3  1  0
  2  6  1  0
  2  7  1  0
  3  8  1  0
M  END
>  <reaction>  (2) 
rmg_rxn_2757

>  <type>  (2) 
r2h

>  <mol_properties>  (2) 
{"0": {"label": "acceptor", "atom_type": "Cs"}, "8": {"label": "a_hydrogen", "atom_type": "H0"}}

>  <electro_map>  (2) 
{"8": {"R": null, "A": null, "D": null}, "0": {"R": 1.0892254022075825, "A": null, "D": null}, "1": {"R": 1.502027254296721, "A": 108.24656614193816, "D": null}, "2": {"R": 1.8180880728309254, "A": 99.17793557091076, "D": 235.62390838149827}, "7": {"R": 1.3406588908004298, "A": 95.52875084527254, "D": 288.7177412999773}, "3": {"R": 3.9625644088949663, "A": 72.43812914669455, "D": 19.709442967242108}, "4": {"R": 1.8104982832526764, "A": 58.748367671885056, "D": 61.404659647831735}, "5": {"R": 3.0867229765774025, "A": 54.38690421123984, "D": 335.6713020398848}, "6": {"R": 1.7562990582222127, "A": 57.08221246746407, "D": 254.89972546920356}}

$$$$

     RDKit          3D

 26 24  0  0  0  0  0  0  0  0999 V2000
   -1.4648   -1.6088   -0.6924 C   0  0  0  0  0  3  0  0  0  0  0  0
    0.0011   -1.8882   -0.8630 C   0  0  0  0  0  0  0  0  0  0  0  0
    0.9005   -2.1467    0.6957 S   0  0  0  0  0  0  0  0  0  0  0  0
   -1.9888   -1.4034   -1.6265 H   0  0  0  0  0  0  0  0  0  0  0  0
   -1.9936   -2.3270   -0.0693 H   0  0  0  0  0  0  0  0  0  0  0  0
    0.4915   -1.0860   -1.4154 H   0  0  0  0  0  0  0  0  0  0  0  0
    0.1593   -2.8105   -1.4301 H   0  0  0  0  0  0  0  0  0  0  0  0
    0.8451   -0.8668    1.0907 H   0  0  0  0  0  0  0  0  0  0  0  0
   -3.2293    1.1003    0.2895 C   0  0  0  0  0  0  0  0  0  0  0  0
   -1.7847    0.7567    0.5411 C   0  0  0  0  0  0  0  0  0  0  0  0
   -0.7910    1.6527   -0.1365 C   0  0  0  0  0  0  0  0  0  0  0  0
    0.5097    1.2336    0.1900 O   0  0  0  0  0  0  0  0  0  0  0  0
    1.5222    1.9231   -0.5034 C   0  0  0  0  0  0  0  0  0  0  0  0
    2.8621    1.3594   -0.0916 C   0  0  0  0  0  0  0  0  0  0  0  0
   -3.4913    2.0775    0.7082 H   0  0  0  0  0  0  0  0  0  0  0  0
   -3.8915    0.3606    0.7409 H   0  0  0  0  0  0  0  0  0  0  0  0
   -3.4461    1.1334   -0.7815 H   0  0  0  0  0  0  0  0  0  0  0  0
   -1.5997   -0.4342   -0.0078 H   0  0  0  0  0  0  0  0  0  0  0  0
   -1.5436    0.5992    1.5924 H   0  0  0  0  0  0  0  0  0  0  0  0
   -0.9361    2.7027    0.1705 H   0  0  0  0  0  0  0  0  0  0  0  0
   -0.9385    1.6176   -1.2282 H   0  0  0  0  0  0  0  0  0  0  0  0
    1.3723    1.8088   -1.5868 H   0  0  0  0  0  0  0  0  0  0  0  0
    1.4646    2.9974   -0.2778 H   0  0  0  0  0  0  0  0  0  0  0  0
    2.9130    0.2924   -0.3135 H   0  0  0  0  0  0  0  0  0  0  0  0
    3.0210    1.4939    0.9791 H   0  0  0  0  0  0  0  0  0  0  0  0
    3.6657    1.8669   -0.6270 H   0  0  0  0  0  0  0  0  0  0  0  0
  1  2  1  0
  1  4  1  0
  1  5  1  0
  2  3  1  0
  2  6  1  0
  2  7  1  0
  3  8  1  0
  9 10  1  0
  9 15  1  0
  9 16  1  0
  9 17  1  0
 10 11  1  0
 10 18  1  0
 10 19  1  0
 11 12  1  0
 11 20  1  0
 11 21  1  0
 12 13  1  0
 13 14  1  0
 13 22  1  0
 13 23  1  0
 14 24  1  0
 14 25  1  0
 14 26  1  0
M  RAD  1   1   2
M  END
>  <reaction>  (3) 
rmg_rxn_2757

>  <type>  (3) 
ts

>  <mol_properties>  (3) 
{"0": {"label": "*3", "atom_type": "Cs"}, "1": {"label": "*4", "atom_type": "Cs"}, "9": {"label": "*1", "atom_type": "Cs"}, "10": {"label": "*0", "atom_type": "Cs"}, "17": {"label": "*2", "atom_type": "H0"}}

$$$$
