
     RDKit          3D

 10  9  0  0  0  0  0  0  0  0999 V2000
    0.5302   -0.4429   -1.8464 C   0  0  0  0  0  0  0  0  0  0  0  0
    0.2977   -0.1708   -0.5763 C   0  0  0  0  0  0  0  0  0  0  0  0
    0.1743    0.0699    0.6665 C   0  0  0  0  0  0  0  0  0  0  0  0
   -0.9151    0.4932    1.5839 C   0  0  0  0  0  0  0  0  0  0  0  0
    0.8322    0.3340   -2.5387 H   0  0  0  0  0  0  0  0  0  0  0  0
    0.3947   -1.4442   -2.2377 H   0  0  0  0  0  0  0  0  0  0  0  0
    1.1047   -0.0657    1.2179 H   0  0  0  0  0  0  0  0  0  0  0  0
   -1.8525    0.6324    1.0433 H   0  0  0  0  0  0  0  0  0  0  0  0
   -0.6544    1.4306    2.0784 H   0  0  0  0  0  0  0  0  0  0  0  0
   -1.0690   -0.2548    2.3636 H   0  0  0  0  0  0  0  0  0  0  0  0
  1  2  2  0
  1  5  1  0
  1  6  1  0
  2  3  2  0
  3  4  1  0
  3  7  1  0
  4  8  1  0
  4  9  1  0
  4 10  1  0
M  END
>  <reaction>  (1) 
rmg_rxn_13973

>  <type>  (1) 
r1h

>  <mol_properties>  (1) 
{"2": {"label": "donator", "atom_type": "Cd"}, "6": {"label": "d_hydrogen", "atom_type": "H0"}}

>  <electro_map>  (1) 
{"6": {"R": null, "A": null, "D": null}, "2": {"R": 1.089999936305053, "A": null, "D": null}, "1": {"R": 1.2719008646966512, "A": 112.8220434168179, "D": null}, "0": {"R": 1.3195660529507325, "A": 144.62606001785457, "D": 180.00009057649163}, "3": {"R": 3.8382720369476493, "A": 12.352859829491713, "D": 179.99932947235507}, "4": {"R": 4.480464492968771, "A": 12.080730897410447, "D": 98.29465608086004}, "5": {"R": 1.8558116716417663, "A": 78.04753913515268, "D": 8.479872535125185}, "7": {"R": 4.486351295447894, "A": 78.0635030678352, "D": 14.28726520006729}, "8": {"R": 1.7731235579174525, "A": 107.26813957087448, "D": 297.7214561190111}, "9": {"R": 1.7589069943283715, "A": 60.26488257170474, "D": 274.1213518836366}}

$$$$

     RDKit          3D

  5  4  0  0  0  0  0  0  0  0999 V2000
    0.3910   -0.1722   -0.4489 C   0  0  0  0  0  0  0  0  0  0  0  0
   -0.3341    0.1683    0.5089 N   0  0  0  0  0  0  0  0  0  0  0  0
    0.0204   -0.2556   -1.4809 H   0  0  0  0  0  0  0  0  0  0  0  0
    1.4458   -0.4023   -0.2750 H   0  0  0  0  0  0  0  0  0  0  0  0
   -1.2810    0.3342    0.1121 H   0  0  0  0  0  0  0  0  0  0  0  0
  1  2  2  3
  1  3  1  0
  1  4  1  0
  2  5  1  0
M  END
>  <reaction>  (2) 
rmg_rxn_13973

>  <type>  (2) 
r2h

>  <mol_properties>  (2) 
{"1": {"label": "acceptor", "atom_type": "N3d"}, "4": {"label": "a_hydrogen", "atom_type": "H0"}}

>  <electro_map>  (2) 
{"4": {"R": null, "A": null, "D": null}, "1": {"R": 1.040000033653699, "A": null, "D": null}, "0": {"R": 1.248620177690919, "A": 106.22877673469313, "D": null}, "2": {"R": 1.0997788076822659, "A": 90.0439093056806, "D": 179.99994102160326}, "3": {"R": 1.8728596869242842, "A": 31.260815127533792, "D": 180.00010959274778}}

$$$$

     RDKit          3D

 14 12  0  0  0  0  0  0  0  0999 V2000
    2.2354   -0.3773    0.4272 C   0  0  0  0  0  0  0  0  0  0  0  0
    1.5103   -0.0368    1.3850 N   0  0  0  0  0  0  0  0  0  0  0  0
    1.8648   -0.4608   -0.6049 H   0  0  0  0  0  0  0  0  0  0  0  0
    3.2902   -0.6074    0.6011 H   0  0  0  0  0  0  0  0  0  0  0  0
   -0.4170   -0.1832   -2.2824 C   0  0  0  0  0  0  0  0  0  0  0  0
   -0.6495    0.0889   -1.0123 C   0  0  0  0  0  0  0  0  0  0  0  0
   -0.7729    0.3296    0.2305 C   0  0  0  0  0  3  0  0  0  0  0  0
   -1.8623    0.7529    1.1479 C   0  0  0  0  0  0  0  0  0  0  0  0
   -0.1149    0.5937   -2.9747 H   0  0  0  0  0  0  0  0  0  0  0  0
   -0.5525   -1.1845   -2.6737 H   0  0  0  0  0  0  0  0  0  0  0  0
    0.3653    0.1637    0.9050 H   0  0  0  0  0  0  0  0  0  0  0  0
   -2.7997    0.8921    0.6073 H   0  0  0  0  0  0  0  0  0  0  0  0
   -1.6016    1.6903    1.6424 H   0  0  0  0  0  0  0  0  0  0  0  0
   -2.0162    0.0049    1.9276 H   0  0  0  0  0  0  0  0  0  0  0  0
  1  2  2  3
  1  3  1  0
  1  4  1  0
  2 11  1  0
  5  6  2  0
  5  9  1  0
  5 10  1  0
  6  7  2  0
  7  8  1  0
  8 12  1  0
  8 13  1  0
  8 14  1  0
M  RAD  1   7   2
M  END
>  <reaction>  (3) 
rmg_rxn_13973

>  <type>  (3) 
ts

>  <mol_properties>  (3) 
{"0": {"label": "*0", "atom_type": "Cd"}, "1": {"label": "*1", "atom_type": "N3d"}, "5": {"label": "*4", "atom_type": "Cdd"}, "6": {"label": "*3", "atom_type": "Cd"}, "10": {"label": "*2", "atom_type": "H0"}}

$$$$
