
     RDKit          3D

 13 12  0  0  0  0  0  0  0  0999 V2000
    1.3924    0.3217    0.9542 N   0  0  0  0  0  2  0  0  0  0  0  0
    0.6045    1.0825    0.2505 N   0  0  0  0  0  0  0  0  0  0  0  0
   -0.5632    0.7850   -0.2597 C   0  0  0  0  0  3  0  0  0  0  0  0
   -1.1484   -0.5669   -0.0650 C   0  0  0  0  0  0  0  0  0  0  0  0
   -0.4604   -1.6532   -0.9001 C   0  0  0  0  0  0  0  0  0  0  0  0
    2.1721    0.9724    1.1785 H   0  0  0  0  0  0  0  0  0  0  0  0
    0.9492    2.0345    0.0717 H   0  0  0  0  0  0  0  0  0  0  0  0
   -1.0428    1.5700   -0.8241 H   0  0  0  0  0  0  0  0  0  0  0  0
   -2.2123   -0.5294   -0.3045 H   0  0  0  0  0  0  0  0  0  0  0  0
   -1.0584   -0.8323    0.9948 H   0  0  0  0  0  0  0  0  0  0  0  0
    0.6024   -1.6968   -0.6600 H   0  0  0  0  0  0  0  0  0  0  0  0
   -0.5674   -1.4508   -1.9672 H   0  0  0  0  0  0  0  0  0  0  0  0
   -0.8970   -2.6316   -0.6929 H   0  0  0  0  0  0  0  0  0  0  0  0
  1  2  1  0
  1  6  1  0
  2  3  1  0
  2  7  1  0
  3  4  1  0
  3  8  1  0
  4  5  1  0
  4  9  1  0
  4 10  1  0
  5 11  1  0
  5 12  1  0
  5 13  1  0
M  CHG  2   1  -1   3   1
M  END
>  <reaction>  (1) 
rmg_rxn_2504

>  <type>  (1) 
r1h

>  <mol_properties>  (1) 
{"0": {"label": "donator", "atom_type": "N1sc"}, "5": {"label": "d_hydrogen", "atom_type": "H0"}}

>  <electro_map>  (1) 
{"5": {"R": null, "A": null, "D": null}, "0": {"R": 1.040000033653699, "A": null, "D": null}, "1": {"R": 1.3018428834789437, "A": 101.81403618644197, "D": null}, "2": {"R": 1.30849353919003, "A": 161.99636917703154, "D": 6.325250419277066}, "3": {"R": 1.4859233610842348, "A": 120.47634344827303, "D": 0.01966540880947029}, "4": {"R": 1.5332143989683031, "A": 113.36325137414569, "D": 286.761015449999}, "6": {"R": 4.065731465311311, "A": 51.88426312399756, "D": 18.318802016472844}, "7": {"R": 2.2329862320130007, "A": 53.57200830454129, "D": 309.3047118950762}, "8": {"R": 2.458743810059242, "A": 121.14138000582444, "D": 32.347963819490715}, "9": {"R": 1.763937760057367, "A": 89.4894077386001, "D": 11.476350112025624}, "10": {"R": 2.4988918709566357, "A": 90.36496350864175, "D": 279.24124347074735}, "11": {"R": 1.7713737411187673, "A": 90.09912706231458, "D": 358.14502675782387}, "12": {"R": 1.768318956779886, "A": 59.902627066769085, "D": 295.2611649747801}}

$$$$

     RDKit          3D

 18 17  0  0  0  0  0  0  0  0999 V2000
   -0.1865   -1.5370    0.7079 H   0  0  0  0  0  0  0  0  0  0  0  0
   -1.3077    0.5221    2.1635 C   0  0  0  0  0  0  0  0  0  0  0  0
    0.1539    0.1208    1.9961 C   0  0  0  0  0  0  0  0  0  0  0  0
    0.4387   -0.6386    0.7296 C   0  0  0  0  0  0  0  0  0  0  0  0
    0.0825    0.0906   -0.4035 O   0  0  0  0  0  0  0  0  0  0  0  0
    0.6383   -0.4134   -1.6096 C   0  0  0  0  0  0  0  0  0  0  0  0
    0.0373    0.3376   -2.7730 C   0  0  0  0  0  0  0  0  0  0  0  0
   -1.9490   -0.3602    2.1967 H   0  0  0  0  0  0  0  0  0  0  0  0
   -1.4503    1.0796    3.0898 H   0  0  0  0  0  0  0  0  0  0  0  0
   -1.6364    1.1576    1.3395 H   0  0  0  0  0  0  0  0  0  0  0  0
    0.7888    1.0143    2.0256 H   0  0  0  0  0  0  0  0  0  0  0  0
    0.4623   -0.5124    2.8314 H   0  0  0  0  0  0  0  0  0  0  0  0
    1.4604   -1.0256    0.6608 H   0  0  0  0  0  0  0  0  0  0  0  0
    1.7265   -0.2848   -1.5792 H   0  0  0  0  0  0  0  0  0  0  0  0
    0.4291   -1.4869   -1.6845 H   0  0  0  0  0  0  0  0  0  0  0  0
    0.2258    1.4076   -2.6811 H   0  0  0  0  0  0  0  0  0  0  0  0
    0.4745   -0.0131   -3.7085 H   0  0  0  0  0  0  0  0  0  0  0  0
   -1.0413    0.1783   -2.8223 H   0  0  0  0  0  0  0  0  0  0  0  0
  1  4  1  0
  2  3  1  0
  2  8  1  0
  2  9  1  0
  2 10  1  0
  3  4  1  0
  3 11  1  0
  3 12  1  0
  4  5  1  0
  4 13  1  0
  5  6  1  0
  6  7  1  0
  6 14  1  0
  6 15  1  0
  7 16  1  0
  7 17  1  0
  7 18  1  0
M  END
>  <reaction>  (2) 
rmg_rxn_2504

>  <type>  (2) 
r2h

>  <mol_properties>  (2) 
{"0": {"label": "a_hydrogen", "atom_type": "H0"}, "3": {"label": "acceptor", "atom_type": "Cs"}}

>  <electro_map>  (2) 
{"0": {"R": null, "A": null, "D": null}, "3": {"R": 1.094712188381323, "A": null, "D": null}, "4": {"R": 1.3937249510699463, "A": 105.50748903386645, "D": null}, "5": {"R": 1.4203494764829743, "A": 103.71215975556704, "D": 113.29398907972514}, "2": {"R": 3.6770508992581084, "A": 20.65556094172482, "D": 343.23298051324053}, "1": {"R": 1.5249347860431837, "A": 105.792240971916, "D": 25.257692849251253}, "6": {"R": 5.1197710111194255, "A": 68.45995197237596, "D": 351.57744202672257}, "7": {"R": 5.397202346319272, "A": 11.523094432981589, "D": 108.86252902051332}, "8": {"R": 1.7662757415935384, "A": 104.84975896658543, "D": 7.030173952935098}, "9": {"R": 1.7619001544673676, "A": 60.25872059472705, "D": 25.983730226225184}, "10": {"R": 2.524422184766914, "A": 68.04011851632889, "D": 257.3111462850896}, "11": {"R": 1.7569398197252257, "A": 89.7373995639791, "D": 59.108307920998996}, "12": {"R": 2.44356213406067, "A": 72.49210027811462, "D": 99.7529300744124}, "13": {"R": 2.3742221763212052, "A": 144.91691339288585, "D": 330.7962153614105}, "14": {"R": 1.7717673213473215, "A": 76.2512515862497, "D": 260.6547372769362}, "15": {"R": 3.068033474248429, "A": 55.09292896452054, "D": 125.04159725013315}, "16": {"R": 1.7709048163253995, "A": 54.70747378419889, "D": 102.54312248103113}, "17": {"R": 1.7662757415935384, "A": 60.09492410617775, "D": 65.63232512982228}}

$$$$

     RDKit          3D

 30 28  0  0  0  0  0  0  0  0999 V2000
   -0.0764   -1.2228    0.6583 N   0  0  0  0  0  2  0  0  0  0  0  0
   -0.8643   -0.4621   -0.0454 N   0  0  0  0  0  0  0  0  0  0  0  0
   -2.0320   -0.7595   -0.5556 C   0  0  0  0  0  3  0  0  0  0  0  0
   -2.6172   -2.1114   -0.3609 C   0  0  0  0  0  0  0  0  0  0  0  0
   -1.9292   -3.1977   -1.1959 C   0  0  0  0  0  0  0  0  0  0  0  0
    0.8722   -0.4312    0.9311 H   0  0  0  0  0  0  0  0  0  0  0  0
   -0.5196    0.4900   -0.2242 H   0  0  0  0  0  0  0  0  0  0  0  0
   -2.5116    0.0255   -1.1200 H   0  0  0  0  0  0  0  0  0  0  0  0
   -3.6811   -2.0740   -0.6004 H   0  0  0  0  0  0  0  0  0  0  0  0
   -2.5272   -2.3768    0.6990 H   0  0  0  0  0  0  0  0  0  0  0  0
   -0.8664   -3.2414   -0.9559 H   0  0  0  0  0  0  0  0  0  0  0  0
   -2.0362   -2.9953   -2.2631 H   0  0  0  0  0  0  0  0  0  0  0  0
   -2.3658   -4.1762   -0.9888 H   0  0  0  0  0  0  0  0  0  0  0  0
   -0.1066    1.8324    2.3917 C   0  0  0  0  0  0  0  0  0  0  0  0
    1.3550    1.4312    2.2242 C   0  0  0  0  0  0  0  0  0  0  0  0
    1.6398    0.6717    0.9577 C   0  0  0  0  0  3  0  0  0  0  0  0
    1.2836    1.4009   -0.1754 O   0  0  0  0  0  0  0  0  0  0  0  0
    1.8394    0.8970   -1.3814 C   0  0  0  0  0  0  0  0  0  0  0  0
    1.2384    1.6480   -2.5448 C   0  0  0  0  0  0  0  0  0  0  0  0
   -0.7479    0.9501    2.4248 H   0  0  0  0  0  0  0  0  0  0  0  0
   -0.2492    2.3900    3.3180 H   0  0  0  0  0  0  0  0  0  0  0  0
   -0.4353    2.4680    1.5677 H   0  0  0  0  0  0  0  0  0  0  0  0
    1.9899    2.3246    2.2537 H   0  0  0  0  0  0  0  0  0  0  0  0
    1.6634    0.7979    3.0595 H   0  0  0  0  0  0  0  0  0  0  0  0
    2.6615    0.2848    0.8889 H   0  0  0  0  0  0  0  0  0  0  0  0
    2.9276    1.0255   -1.3510 H   0  0  0  0  0  0  0  0  0  0  0  0
    1.6302   -0.1765   -1.4563 H   0  0  0  0  0  0  0  0  0  0  0  0
    1.4269    2.7180   -2.4529 H   0  0  0  0  0  0  0  0  0  0  0  0
    1.6756    1.2972   -3.4804 H   0  0  0  0  0  0  0  0  0  0  0  0
    0.1598    1.4886   -2.5941 H   0  0  0  0  0  0  0  0  0  0  0  0
  1  2  1  0
  1  6  1  0
  2  3  1  0
  2  7  1  0
  3  4  1  0
  3  8  1  0
  4  5  1  0
  4  9  1  0
  4 10  1  0
  5 11  1  0
  5 12  1  0
  5 13  1  0
 14 15  1  0
 14 20  1  0
 14 21  1  0
 14 22  1  0
 15 16  1  0
 15 23  1  0
 15 24  1  0
 16 17  1  0
 16 25  1  0
 17 18  1  0
 18 19  1  0
 18 26  1  0
 18 27  1  0
 19 28  1  0
 19 29  1  0
 19 30  1  0
M  CHG  2   1  -1   3   1
M  RAD  1  16   2
M  END
>  <reaction>  (3) 
rmg_rxn_2504

>  <type>  (3) 
ts

>  <mol_properties>  (3) 
{"0": {"label": "*1", "atom_type": "N1sc"}, "1": {"label": "*0", "atom_type": "N3s"}, "5": {"label": "*2", "atom_type": "H0"}, "15": {"label": "*3", "atom_type": "Cs"}, "16": {"label": "*4", "atom_type": "O2s"}}

$$$$
