
     RDKit          3D

  4  3  0  0  0  0  0  0  0  0999 V2000
   -0.1954   -0.5658    0.2908 N   0  0  0  0  0  1  0  0  0  0  0  0
    0.1689    0.4333   -0.2264 N   0  0  0  0  0  0  0  0  0  0  0  0
   -0.5938    1.1239   -0.3036 H   0  0  0  0  0  0  0  0  0  0  0  0
    1.1312    0.5642   -0.5745 H   0  0  0  0  0  0  0  0  0  0  0  0
  1  2  1  0
  2  3  1  0
  2  4  1  0
M  RAD  1   1   3
M  END
>  <reaction>  (1) 
rmg_rxn_1066

>  <type>  (1) 
r1h

>  <mol_properties>  (1) 
{"1": {"label": "donator", "atom_type": "N3s"}, "2": {"label": "d_hydrogen", "atom_type": "H0"}}

>  <electro_map>  (1) 
{"2": {"R": null, "A": null, "D": null}, "1": {"R": 1.031733024067445, "A": null, "D": null}, "0": {"R": 1.1825628039757485, "A": 111.7518377896474, "D": null}, "3": {"R": 1.9456675867994881, "A": 57.937252441503105, "D": 359.1357419552366}}

$$$$

     RDKit          3D

  6  5  0  0  0  0  0  0  0  0999 V2000
    1.3847    0.9969   -0.2389 H   0  0  0  0  0  0  0  0  0  0  0  0
    0.3411    1.1288    0.0270 C   0  0  0  0  0  0  0  0  0  0  0  0
    0.1238   -0.1546    0.3384 N   0  0  0  0  0  0  0  0  0  0  0  0
   -0.4919   -0.9792   -0.2977 O   0  0  0  0  0  0  0  0  0  0  0  0
    0.4574    1.7823    0.8835 H   0  0  0  0  0  0  0  0  0  0  0  0
   -0.1639    1.5120   -0.8552 H   0  0  0  0  0  0  0  0  0  0  0  0
  1  2  1  0
  2  3  1  0
  2  5  1  0
  2  6  1  0
  3  4  2  0
M  END
>  <reaction>  (2) 
rmg_rxn_1066

>  <type>  (2) 
r2h

>  <mol_properties>  (2) 
{"0": {"label": "a_hydrogen", "atom_type": "H0"}, "1": {"label": "acceptor", "atom_type": "Cs"}}

>  <electro_map>  (2) 
{"0": {"R": null, "A": null, "D": null}, "1": {"R": 1.084975275997316, "A": null, "D": null}, "2": {"R": 1.3383478204901893, "A": 95.5484675135018, "D": null}, "3": {"R": 1.209825263371722, "A": 128.5361008231922, "D": 104.21099135623733}, "4": {"R": 3.1499634634654083, "A": 18.546306272549877, "D": 331.3454785920735}, "5": {"R": 1.8660116922721601, "A": 54.77828919786099, "D": 144.41015572784767}}

$$$$

     RDKit          3D

  9  7  0  0  0  0  0  0  0  0999 V2000
    1.2892   -0.8095    0.2938 N   0  0  0  0  0  1  0  0  0  0  0  0
    1.6534    0.1896   -0.2233 N   0  0  0  0  0  0  0  0  0  0  0  0
    0.7223    1.0329   -0.3177 H   0  0  0  0  0  0  0  0  0  0  0  0
    2.6158    0.3205   -0.5715 H   0  0  0  0  0  0  0  0  0  0  0  0
   -0.6679    1.2085    0.0365 C   0  0  0  0  0  0  0  0  0  0  0  0
   -0.8853   -0.0748    0.3479 N   0  0  0  0  0  0  0  0  0  0  0  0
   -1.5009   -0.8994   -0.2882 O   0  0  0  0  0  1  0  0  0  0  0  0
   -0.5516    1.8621    0.8930 H   0  0  0  0  0  0  0  0  0  0  0  0
   -1.1729    1.5917   -0.8457 H   0  0  0  0  0  0  0  0  0  0  0  0
  1  2  1  0
  2  3  1  0
  2  4  1  0
  5  6  2  3
  5  8  1  0
  5  9  1  0
  6  7  1  0
M  RAD  2   1   3   7   2
M  END
>  <reaction>  (3) 
rmg_rxn_1066

>  <type>  (3) 
ts

>  <mol_properties>  (3) 
{"0": {"label": "*0", "atom_type": "N3s"}, "1": {"label": "*1", "atom_type": "N3s"}, "2": {"label": "*2", "atom_type": "H0"}, "4": {"label": "*3", "atom_type": "Cd"}, "5": {"label": "*4", "atom_type": "N3d"}}

$$$$
