
     RDKit          3D

  9  8  0  0  0  0  0  0  0  0999 V2000
    0.0138    1.5419   -0.6969 O   0  0  0  0  0  0  0  0  0  0  0  0
    0.1017    0.3328   -0.6618 N   0  0  0  0  0  0  0  0  0  0  0  0
    0.1914   -1.6768    0.7631 C   0  0  0  0  0  0  0  0  0  0  0  0
   -0.2632   -0.2596    0.5731 C   0  0  0  0  0  0  0  0  0  0  0  0
    1.2371   -1.7197    1.0745 H   0  0  0  0  0  0  0  0  0  0  0  0
    0.0847   -2.2354   -0.1669 H   0  0  0  0  0  0  0  0  0  0  0  0
   -0.4106   -2.1618    1.5336 H   0  0  0  0  0  0  0  0  0  0  0  0
   -1.3510   -0.3286    0.4957 H   0  0  0  0  0  0  0  0  0  0  0  0
   -0.1485    0.4189    1.4220 H   0  0  0  0  0  0  0  0  0  0  0  0
  1  2  2  0
  2  4  1  0
  3  4  1  0
  3  5  1  0
  3  6  1  0
  3  7  1  0
  4  8  1  0
  4  9  1  0
M  END
>  <reaction>  (1) 
rmg_rxn_13859

>  <type>  (1) 
r1h

>  <mol_properties>  (1) 
{"3": {"label": "donator", "atom_type": "Cs"}, "7": {"label": "d_hydrogen", "atom_type": "H0"}}

>  <electro_map>  (1) 
{"7": {"R": null, "A": null, "D": null}, "3": {"R": 1.0927426194932501, "A": null, "D": null}, "1": {"R": 1.4174157107150362, "A": 102.75871748983735, "D": null}, "0": {"R": 1.2128370583418369, "A": 107.33895006886405, "D": 250.46295194886113}, "2": {"R": 3.538883162579843, "A": 22.72531576559432, "D": 16.114172009681994}, "4": {"R": 1.0918872229465697, "A": 101.62126324265914, "D": 100.50251261415855}, "5": {"R": 1.770595205415176, "A": 35.72803722557193, "D": 259.26832640779014}, "6": {"R": 1.7726837438516614, "A": 59.81301523933532, "D": 323.1365580705788}, "8": {"R": 2.5963893468393486, "A": 88.38676499777351, "D": 66.88545216928087}}

$$$$

     RDKit          3D

 10  9  0  0  0  0  0  0  0  0999 V2000
   -0.1364    1.5231   -1.1519 C   0  0  0  0  0  0  0  0  0  0  0  0
    0.3964    0.4394   -0.2968 C   0  0  0  0  0  0  0  0  0  0  0  0
   -0.2852   -1.5819    1.1633 C   0  0  0  0  0  0  0  0  0  0  0  0
    0.0143   -0.5408    0.4087 C   0  0  0  0  0  0  0  0  0  0  0  0
   -1.2239    1.4583   -1.2156 H   0  0  0  0  0  0  0  0  0  0  0  0
    0.1364    2.4998   -0.7501 H   0  0  0  0  0  0  0  0  0  0  0  0
    0.2782    1.4561   -2.1589 H   0  0  0  0  0  0  0  0  0  0  0  0
    1.4839    0.5128   -0.3016 H   0  0  0  0  0  0  0  0  0  0  0  0
   -0.3678   -2.5743    0.7373 H   0  0  0  0  0  0  0  0  0  0  0  0
   -0.4796   -1.4663    2.2226 H   0  0  0  0  0  0  0  0  0  0  0  0
  1  2  1  0
  1  5  1  0
  1  6  1  0
  1  7  1  0
  2  4  2  0
  2  8  1  0
  3  4  2  0
  3  9  1  0
  3 10  1  0
M  END
>  <reaction>  (2) 
rmg_rxn_13859

>  <type>  (2) 
r2h

>  <mol_properties>  (2) 
{"1": {"label": "acceptor", "atom_type": "Cd"}, "7": {"label": "a_hydrogen", "atom_type": "H0"}}

>  <electro_map>  (2) 
{"7": {"R": null, "A": null, "D": null}, "1": {"R": 1.0900001003545312, "A": null, "D": null}, "3": {"R": 1.2666478674313393, "A": 110.83113740060402, "D": null}, "2": {"R": 1.3202118242693297, "A": 143.9204987908558, "D": 180.03327369716845}, "0": {"R": 3.876014576651265, "A": 10.936960473448213, "D": 181.68004648505533}, "4": {"R": 1.0912508614308387, "A": 87.07628032793049, "D": 179.24176799885845}, "5": {"R": 1.7753574548692481, "A": 35.53977428225953, "D": 121.26275166881113}, "6": {"R": 1.7589992331958029, "A": 60.24211142503605, "D": 37.151100000839776}, "8": {"R": 5.004905583027469, "A": 90.22902067029732, "D": 298.75594791026987}, "9": {"R": 1.8564663744859933, "A": 89.43481414389596, "D": 358.86245725207846}}

$$$$

     RDKit          3D

 18 16  0  0  0  0  0  0  0  0999 V2000
    1.8109    2.2503   -1.2718 O   0  0  0  0  0  0  0  0  0  0  0  0
    1.8988    1.0412   -1.2366 N   0  0  0  0  0  0  0  0  0  0  0  0
   -1.6667    1.3577   -0.9417 C   0  0  0  0  0  0  0  0  0  0  0  0
    1.9886   -0.9684    0.1883 C   0  0  0  0  0  0  0  0  0  0  0  0
   -1.1339    0.2740   -0.0865 C   0  0  0  0  0  3  0  0  0  0  0  0
    1.5340    0.4488   -0.0017 C   0  0  0  0  0  0  0  0  0  0  0  0
   -1.8155   -1.7473    1.3736 C   0  0  0  0  0  0  0  0  0  0  0  0
   -1.5160   -0.7062    0.6189 C   0  0  0  0  0  0  0  0  0  0  0  0
   -2.7541    1.2929   -1.0054 H   0  0  0  0  0  0  0  0  0  0  0  0
   -1.3939    2.3344   -0.5399 H   0  0  0  0  0  0  0  0  0  0  0  0
   -1.2521    1.2907   -1.9486 H   0  0  0  0  0  0  0  0  0  0  0  0
    3.0342   -1.0113    0.4996 H   0  0  0  0  0  0  0  0  0  0  0  0
    1.8819   -1.5270   -0.7418 H   0  0  0  0  0  0  0  0  0  0  0  0
    1.3866   -1.4534    0.9587 H   0  0  0  0  0  0  0  0  0  0  0  0
    0.2564    0.3678   -0.0927 H   0  0  0  0  0  0  0  0  0  0  0  0
    1.6486    1.1273    0.8471 H   0  0  0  0  0  0  0  0  0  0  0  0
   -1.8981   -2.7397    0.9475 H   0  0  0  0  0  0  0  0  0  0  0  0
   -2.0099   -1.6317    2.4329 H   0  0  0  0  0  0  0  0  0  0  0  0
  1  2  2  0
  2  6  1  0
  3  5  1  0
  3  9  1  0
  3 10  1  0
  3 11  1  0
  4  6  1  0
  4 12  1  0
  4 13  1  0
  4 14  1  0
  5  8  2  0
  6 15  1  0
  6 16  1  0
  7  8  2  0
  7 17  1  0
  7 18  1  0
M  RAD  1   5   2
M  END
>  <reaction>  (3) 
rmg_rxn_13859

>  <type>  (3) 
ts

>  <mol_properties>  (3) 
{"1": {"label": "*0", "atom_type": "N3d"}, "4": {"label": "*3", "atom_type": "Cd"}, "5": {"label": "*1", "atom_type": "Cs"}, "7": {"label": "*4", "atom_type": "Cdd"}, "14": {"label": "*2", "atom_type": "H0"}}

$$$$
