
     RDKit          3D

 13 12  0  0  0  0  0  0  0  0999 V2000
   -1.2330   -0.8208    0.8557 N   0  0  0  0  0  2  0  0  0  0  0  0
   -1.2292   -0.1659   -0.2744 N   0  0  0  0  0  0  0  0  0  0  0  0
   -0.1874    0.2270   -0.9544 C   0  0  0  0  0  3  0  0  0  0  0  0
    1.1878   -0.0544   -0.4663 C   0  0  0  0  0  0  0  0  0  0  0  0
    1.5966    0.8187    0.7260 C   0  0  0  0  0  0  0  0  0  0  0  0
   -2.2349   -0.9973    1.0714 H   0  0  0  0  0  0  0  0  0  0  0  0
   -2.1485    0.0763   -0.6738 H   0  0  0  0  0  0  0  0  0  0  0  0
   -0.4003    0.7724   -1.8616 H   0  0  0  0  0  0  0  0  0  0  0  0
    1.8911    0.0830   -1.2892 H   0  0  0  0  0  0  0  0  0  0  0  0
    1.2362   -1.1062   -0.1620 H   0  0  0  0  0  0  0  0  0  0  0  0
    1.6062    1.8748    0.4509 H   0  0  0  0  0  0  0  0  0  0  0  0
    2.5942    0.5483    1.0758 H   0  0  0  0  0  0  0  0  0  0  0  0
    0.8971    0.6816    1.5510 H   0  0  0  0  0  0  0  0  0  0  0  0
  1  2  1  0
  1  6  1  0
  2  3  1  0
  2  7  1  0
  3  4  1  0
  3  8  1  0
  4  5  1  0
  4  9  1  0
  4 10  1  0
  5 11  1  0
  5 12  1  0
  5 13  1  0
M  CHG  2   1  -1   3   1
M  END
>  <reaction>  (1) 
rmg_rxn_2513

>  <type>  (1) 
r1h

>  <mol_properties>  (1) 
{"0": {"label": "donator", "atom_type": "N1sc"}, "5": {"label": "d_hydrogen", "atom_type": "H0"}}

>  <electro_map>  (1) 
{"5": {"R": null, "A": null, "D": null}, "0": {"R": 1.0399999190293794, "A": null, "D": null}, "1": {"R": 1.3061171140108703, "A": 105.5087824486718, "D": null}, "2": {"R": 1.3046577587278407, "A": 159.42569859193398, "D": 5.905674673601913}, "3": {"R": 1.4861628156007967, "A": 120.70644592587664, "D": 359.8855561563039}, "4": {"R": 1.5332844512168986, "A": 113.2210165581561, "D": 286.336370825313}, "6": {"R": 4.066511081366671, "A": 51.88952185663008, "D": 18.085264644929552}, "7": {"R": 2.225199928302342, "A": 53.34951309891281, "D": 308.83699789076866}, "8": {"R": 2.460369129243868, "A": 121.32421489052814, "D": 32.76291510922477}, "9": {"R": 1.764563182128757, "A": 89.52872449175612, "D": 10.797949190169893}, "10": {"R": 3.0658414089645727, "A": 55.08004494008801, "D": 278.29165676825266}, "11": {"R": 1.7682096080419316, "A": 53.742294949531285, "D": 253.71127900480792}, "12": {"R": 1.767489908451262, "A": 60.123807451456116, "D": 293.90668542607045}}

$$$$

     RDKit          3D

 15 14  0  0  0  0  0  0  0  0999 V2000
    1.5634   -1.4019    1.0714 H   0  0  0  0  0  0  0  0  0  0  0  0
    0.5035   -1.5472    1.2703 C   0  0  0  0  0  0  0  0  0  0  0  0
   -0.3492   -1.5360    0.0352 C   0  0  0  0  0  0  0  0  0  0  0  0
   -0.1919   -0.0718   -1.0381 S   0  0  0  0  0  0  0  0  0  0  0  0
   -0.5266    1.2943    0.1135 C   0  0  0  0  0  0  0  0  0  0  0  0
    0.7152    1.9304    0.7205 C   0  0  0  0  0  0  0  0  0  0  0  0
    0.2871   -0.7565    1.9852 H   0  0  0  0  0  0  0  0  0  0  0  0
    0.5498   -2.5221    1.7525 H   0  0  0  0  0  0  0  0  0  0  0  0
   -1.4091   -1.6443    0.2871 H   0  0  0  0  0  0  0  0  0  0  0  0
   -0.0921   -2.3695   -0.6212 H   0  0  0  0  0  0  0  0  0  0  0  0
   -1.0874    2.0299   -0.4640 H   0  0  0  0  0  0  0  0  0  0  0  0
   -1.2015    0.9172    0.8837 H   0  0  0  0  0  0  0  0  0  0  0  0
    1.3611    2.3376   -0.0590 H   0  0  0  0  0  0  0  0  0  0  0  0
    0.4314    2.7505    1.3838 H   0  0  0  0  0  0  0  0  0  0  0  0
    1.3008    1.2123    1.2948 H   0  0  0  0  0  0  0  0  0  0  0  0
  1  2  1  0
  2  3  1  0
  2  7  1  0
  2  8  1  0
  3  4  1  0
  3  9  1  0
  3 10  1  0
  4  5  1  0
  5  6  1  0
  5 11  1  0
  5 12  1  0
  6 13  1  0
  6 14  1  0
  6 15  1  0
M  END
>  <reaction>  (2) 
rmg_rxn_2513

>  <type>  (2) 
r2h

>  <mol_properties>  (2) 
{"0": {"label": "a_hydrogen", "atom_type": "H0"}, "1": {"label": "acceptor", "atom_type": "Cs"}}

>  <electro_map>  (2) 
{"0": {"R": null, "A": null, "D": null}, "1": {"R": 1.0881545125167917, "A": null, "D": null}, "2": {"R": 1.5009474146537534, "A": 113.69605866736335, "D": null}, "3": {"R": 1.8222248690218945, "A": 98.90846222676807, "D": 132.2886783057931}, "4": {"R": 1.8178244683912912, "A": 102.4073198961493, "D": 305.2739120273958}, "5": {"R": 1.521576747612128, "A": 114.61872565005504, "D": 95.29203661219583}, "6": {"R": 3.000394000565654, "A": 71.1754423717991, "D": 286.56109376419016}, "7": {"R": 1.8001452334411001, "A": 143.41963112092756, "D": 81.50232877860559}, "8": {"R": 2.599069311388288, "A": 68.38365874509239, "D": 284.29125690485455}, "9": {"R": 1.7564840086207114, "A": 65.6077407793004, "D": 120.44967325775397}, "10": {"R": 4.513348807604665, "A": 54.14029792396987, "D": 251.5273935250411}, "11": {"R": 1.7514516395515654, "A": 54.68057492819027, "D": 37.71695856052287}, "12": {"R": 3.0779003700357506, "A": 54.328358984357045, "D": 82.93334628825728}, "13": {"R": 1.7653682825935375, "A": 54.48910797221475, "D": 105.42411884318402}, "14": {"R": 1.7691688419112448, "A": 59.78432619862928, "D": 67.51043991043515}}

$$$$

     RDKit          3D

 27 25  0  0  0  0  0  0  0  0999 V2000
    1.1162   -1.0244    0.8044 N   0  0  0  0  0  2  0  0  0  0  0  0
    1.1200   -0.3695   -0.3257 N   0  0  0  0  0  0  0  0  0  0  0  0
    2.1617    0.0235   -1.0057 C   0  0  0  0  0  3  0  0  0  0  0  0
    3.5369   -0.2580   -0.5176 C   0  0  0  0  0  0  0  0  0  0  0  0
    3.9457    0.6151    0.6746 C   0  0  0  0  0  0  0  0  0  0  0  0
   -0.0386   -1.2279    1.0530 H   0  0  0  0  0  0  0  0  0  0  0  0
    0.2006   -0.1273   -0.7252 H   0  0  0  0  0  0  0  0  0  0  0  0
    1.9489    0.5688   -1.9129 H   0  0  0  0  0  0  0  0  0  0  0  0
    4.2403   -0.1205   -1.3405 H   0  0  0  0  0  0  0  0  0  0  0  0
    3.5854   -1.3098   -0.2134 H   0  0  0  0  0  0  0  0  0  0  0  0
    3.9553    1.6713    0.3996 H   0  0  0  0  0  0  0  0  0  0  0  0
    4.9434    0.3447    1.0245 H   0  0  0  0  0  0  0  0  0  0  0  0
    3.2462    0.4780    1.4997 H   0  0  0  0  0  0  0  0  0  0  0  0
   -1.4010   -1.4146    1.3088 C   0  0  0  0  0  3  0  0  0  0  0  0
   -2.2537   -1.4034    0.0736 C   0  0  0  0  0  0  0  0  0  0  0  0
   -2.0964    0.0608   -0.9996 S   0  0  0  0  0  0  0  0  0  0  0  0
   -2.4311    1.4269    0.1519 C   0  0  0  0  0  0  0  0  0  0  0  0
   -1.1892    2.0630    0.7589 C   0  0  0  0  0  0  0  0  0  0  0  0
   -1.6174   -0.6239    2.0236 H   0  0  0  0  0  0  0  0  0  0  0  0
   -1.3547   -2.3895    1.7910 H   0  0  0  0  0  0  0  0  0  0  0  0
   -3.3135   -1.5117    0.3256 H   0  0  0  0  0  0  0  0  0  0  0  0
   -1.9966   -2.2369   -0.5827 H   0  0  0  0  0  0  0  0  0  0  0  0
   -2.9918    2.1626   -0.4255 H   0  0  0  0  0  0  0  0  0  0  0  0
   -3.1060    1.0498    0.9222 H   0  0  0  0  0  0  0  0  0  0  0  0
   -0.5433    2.4702   -0.0206 H   0  0  0  0  0  0  0  0  0  0  0  0
   -1.4730    2.8831    1.4222 H   0  0  0  0  0  0  0  0  0  0  0  0
   -0.6037    1.3449    1.3332 H   0  0  0  0  0  0  0  0  0  0  0  0
  1  2  1  0
  1  6  1  0
  2  3  1  0
  2  7  1  0
  3  4  1  0
  3  8  1  0
  4  5  1  0
  4  9  1  0
  4 10  1  0
  5 11  1  0
  5 12  1  0
  5 13  1  0
 14 15  1  0
 14 19  1  0
 14 20  1  0
 15 16  1  0
 15 21  1  0
 15 22  1  0
 16 17  1  0
 17 18  1  0
 17 23  1  0
 17 24  1  0
 18 25  1  0
 18 26  1  0
 18 27  1  0
M  CHG  2   1  -1   3   1
M  RAD  1  14   2
M  END
>  <reaction>  (3) 
rmg_rxn_2513

>  <type>  (3) 
ts

>  <mol_properties>  (3) 
{"0": {"label": "*1", "atom_type": "N1sc"}, "1": {"label": "*0", "atom_type": "N3s"}, "5": {"label": "*2", "atom_type": "H0"}, "13": {"label": "*3", "atom_type": "Cs"}, "14": {"label": "*4", "atom_type": "Cs"}}

$$$$
