
     RDKit          3D

 10  9  0  0  0  0  0  0  0  0999 V2000
   -1.3603   -1.4241    0.1515 C   0  0  0  0  0  0  0  0  0  0  0  0
   -0.3744   -0.5621    0.0100 C   0  0  0  0  0  0  0  0  0  0  0  0
    0.6352    0.1937   -0.1478 C   0  0  0  0  0  0  0  0  0  0  0  0
    0.9820    1.6288   -0.0124 C   0  0  0  0  0  0  0  0  0  0  0  0
   -2.0247   -1.6548   -0.6724 H   0  0  0  0  0  0  0  0  0  0  0  0
   -1.5453   -1.9080    1.1029 H   0  0  0  0  0  0  0  0  0  0  0  0
    1.5273   -0.3591   -0.4422 H   0  0  0  0  0  0  0  0  0  0  0  0
    1.3149    2.0372   -0.9688 H   0  0  0  0  0  0  0  0  0  0  0  0
    1.7967    1.7575    0.7031 H   0  0  0  0  0  0  0  0  0  0  0  0
    0.1223    2.2057    0.3304 H   0  0  0  0  0  0  0  0  0  0  0  0
  1  2  2  0
  1  5  1  0
  1  6  1  0
  2  3  2  0
  3  4  1  0
  3  7  1  0
  4  8  1  0
  4  9  1  0
  4 10  1  0
M  END
>  <reaction>  (1) 
rmg_rxn_13933

>  <type>  (1) 
r1h

>  <mol_properties>  (1) 
{"2": {"label": "donator", "atom_type": "Cd"}, "6": {"label": "d_hydrogen", "atom_type": "H0"}}

>  <electro_map>  (1) 
{"6": {"R": null, "A": null, "D": null}, "2": {"R": 1.0900000456713745, "A": null, "D": null}, "1": {"R": 1.2710022840081678, "A": 112.45916069090079, "D": null}, "0": {"R": 1.3171935401497454, "A": 144.7443130832526, "D": 180.2285782032676}, "3": {"R": 3.851404399605967, "A": 11.903370559871618, "D": 175.0758828442195}, "4": {"R": 4.500867336186893, "A": 11.952030598552057, "D": 95.88586205137898}, "5": {"R": 1.8562146424288033, "A": 77.68727065910271, "D": 7.957767741425069}, "7": {"R": 5.295058037256997, "A": 70.3465456511279, "D": 356.93124599486754}, "8": {"R": 1.762259998619493, "A": 70.01335942726905, "D": 181.67042760384956}, "9": {"R": 1.7729773239475737, "A": 60.14826939395583, "D": 300.17188112633033}}

$$$$

     RDKit          3D

 10  9  0  0  0  0  0  0  0  0999 V2000
   -0.8066   -1.3853    0.2508 C   0  0  0  0  0  0  0  0  0  0  0  0
   -0.6329   -0.1992   -0.6533 C   0  0  0  0  0  0  0  0  0  0  0  0
    0.4427    0.7558   -0.3649 C   0  0  0  0  0  0  0  0  0  0  0  0
    1.0225    0.8395    0.6935 O   0  0  0  0  0  0  0  0  0  0  0  0
   -1.8022   -1.8164    0.1325 H   0  0  0  0  0  0  0  0  0  0  0  0
   -0.6684   -1.0944    1.2913 H   0  0  0  0  0  0  0  0  0  0  0  0
   -0.0726   -2.1610    0.0188 H   0  0  0  0  0  0  0  0  0  0  0  0
   -0.7747   -0.3816   -1.7177 H   0  0  0  0  0  0  0  0  0  0  0  0
    0.6787    1.4622   -1.1869 H   0  0  0  0  0  0  0  0  0  0  0  0
   -1.5203    0.3995   -0.4517 H   0  0  0  0  0  0  0  0  0  0  0  0
  1  2  1  0
  1  5  1  0
  1  6  1  0
  1  7  1  0
  2  3  1  0
  2  8  1  0
  2 10  1  0
  3  4  2  0
  3  9  1  0
M  END
>  <reaction>  (2) 
rmg_rxn_13933

>  <type>  (2) 
r2h

>  <mol_properties>  (2) 
{"1": {"label": "acceptor", "atom_type": "Cs"}, "9": {"label": "a_hydrogen", "atom_type": "H0"}}

>  <electro_map>  (2) 
{"9": {"R": null, "A": null, "D": null}, "1": {"R": 1.0892335557622217, "A": null, "D": null}, "2": {"R": 1.4670509900499764, "A": 101.71624556841375, "D": null}, "3": {"R": 1.209716427338175, "A": 121.43333158945893, "D": 253.7475660454316}, "0": {"R": 2.914017173271394, "A": 60.88345282858144, "D": 8.685352150937877}, "4": {"R": 1.0912750580347828, "A": 152.96066150571173, "D": 288.49638207606216}, "5": {"R": 1.7746652394930753, "A": 35.486081191062716, "D": 288.9162143403727}, "6": {"R": 1.7641143412781932, "A": 59.91937892134832, "D": 322.63278070721555}, "7": {"R": 2.5835664602937234, "A": 88.66066188911314, "D": 66.56563299566295}, "8": {"R": 2.4070820546445333, "A": 102.42999095703219, "D": 64.95806723006814}}

$$$$

     RDKit          3D

 19 17  0  0  0  0  0  0  0  0999 V2000
    0.8700   -1.8881    0.2000 C   0  0  0  0  0  0  0  0  0  0  0  0
    1.0437   -0.7020   -0.7041 C   0  0  0  0  0  0  0  0  0  0  0  0
    2.1193    0.2530   -0.4157 C   0  0  0  0  0  0  0  0  0  0  0  0
    2.6992    0.3367    0.6427 O   0  0  0  0  0  0  0  0  0  0  0  0
   -0.1255   -2.3192    0.0817 H   0  0  0  0  0  0  0  0  0  0  0  0
    1.0082   -1.5972    1.2405 H   0  0  0  0  0  0  0  0  0  0  0  0
    1.6041   -2.6639   -0.0320 H   0  0  0  0  0  0  0  0  0  0  0  0
    0.9019   -0.8845   -1.7685 H   0  0  0  0  0  0  0  0  0  0  0  0
    2.3554    0.9594   -1.2377 H   0  0  0  0  0  0  0  0  0  0  0  0
   -3.1382   -0.9051    0.2052 C   0  0  0  0  0  0  0  0  0  0  0  0
   -2.1523   -0.0431    0.0637 C   0  0  0  0  0  0  0  0  0  0  0  0
   -1.1427    0.7127   -0.0942 C   0  0  0  0  0  3  0  0  0  0  0  0
   -0.7959    2.1477    0.0413 C   0  0  0  0  0  0  0  0  0  0  0  0
   -3.8026   -1.1359   -0.6187 H   0  0  0  0  0  0  0  0  0  0  0  0
   -3.3232   -1.3891    1.1566 H   0  0  0  0  0  0  0  0  0  0  0  0
   -0.0426    0.0309   -0.4572 H   0  0  0  0  0  0  0  0  0  0  0  0
   -0.4630    2.5562   -0.9151 H   0  0  0  0  0  0  0  0  0  0  0  0
    0.0188    2.2764    0.7568 H   0  0  0  0  0  0  0  0  0  0  0  0
   -1.6556    2.7246    0.3840 H   0  0  0  0  0  0  0  0  0  0  0  0
  1  2  1  0
  1  5  1  0
  1  6  1  0
  1  7  1  0
  2  3  1  0
  2  8  1  0
  2 16  1  0
  3  4  2  0
  3  9  1  0
 10 11  2  0
 10 14  1  0
 10 15  1  0
 11 12  2  0
 12 13  1  0
 13 17  1  0
 13 18  1  0
 13 19  1  0
M  RAD  1  12   2
M  END
>  <reaction>  (3) 
rmg_rxn_13933

>  <type>  (3) 
ts

>  <mol_properties>  (3) 
{"1": {"label": "*1", "atom_type": "Cs"}, "2": {"label": "*0", "atom_type": "CO"}, "10": {"label": "*4", "atom_type": "Cdd"}, "11": {"label": "*3", "atom_type": "Cd"}, "15": {"label": "*2", "atom_type": "H0"}}

$$$$
