
     RDKit          3D

  9  8  0  0  0  0  0  0  0  0999 V2000
    1.1741    0.7689    0.1774 O   0  0  0  0  0  1  0  0  0  0  0  0
    0.7432   -0.4283    0.0068 N   0  0  0  0  0  0  0  0  0  0  0  0
   -0.4938   -0.7263   -0.1211 C   0  0  0  0  0  3  0  0  0  0  0  0
   -1.5678    0.3022   -0.0837 C   0  0  0  0  0  0  0  0  0  0  0  0
    1.5967   -1.0225    0.0028 H   0  0  0  0  0  0  0  0  0  0  0  0
   -0.7036   -1.7787   -0.2583 H   0  0  0  0  0  0  0  0  0  0  0  0
   -1.4111    1.0435   -0.8712 H   0  0  0  0  0  0  0  0  0  0  0  0
   -2.5486   -0.1511   -0.2101 H   0  0  0  0  0  0  0  0  0  0  0  0
   -1.5424    0.8433    0.8655 H   0  0  0  0  0  0  0  0  0  0  0  0
  1  2  1  0
  2  3  1  0
  2  5  1  0
  3  4  1  0
  3  6  1  0
  4  7  1  0
  4  8  1  0
  4  9  1  0
M  CHG  2   1  -1   3   1
M  END
>  <reaction>  (1) 
rmg_rxn_2028

>  <type>  (1) 
r1h

>  <mol_properties>  (1) 
{"1": {"label": "donator", "atom_type": "N3s"}, "4": {"label": "d_hydrogen", "atom_type": "H0"}}

>  <electro_map>  (1) 
{"4": {"R": null, "A": null, "D": null}, "1": {"R": 1.040000033653699, "A": null, "D": null}, "0": {"R": 1.2838029316034465, "A": 104.94165901861669, "D": null}, "2": {"R": 2.2597796572395463, "A": 60.99558888592164, "D": 359.99990223639327}, "3": {"R": 1.4875536965046812, "A": 94.13375055154897, "D": 179.99992828809587}, "5": {"R": 2.2600016293477623, "A": 23.84056320570667, "D": 180.0000033066511}, "6": {"R": 2.973446313681597, "A": 18.37701170711412, "D": 290.7552905998392}, "7": {"R": 1.7771417859366836, "A": 55.77480544336061, "D": 316.2524786268046}, "8": {"R": 1.7771417859366836, "A": 59.11084337292723, "D": 88.61549708367788}}

$$$$

     RDKit          3D

  5  4  0  0  0  0  0  0  0  0999 V2000
   -0.6199   -0.8997   -0.1506 N   0  0  0  0  0  0  0  0  0  0  0  0
   -0.2485    0.2859    0.0142 N   0  0  0  0  0  0  0  0  0  0  0  0
    0.8714    0.6912    0.1456 O   0  0  0  0  0  0  0  0  0  0  0  0
    0.1111   -1.6066   -0.1768 H   0  0  0  0  0  0  0  0  0  0  0  0
   -1.6333   -0.8468   -0.2211 H   0  0  0  0  0  0  0  0  0  0  0  0
  1  2  1  0
  1  4  1  0
  1  5  1  0
  2  3  2  0
M  END
>  <reaction>  (2) 
rmg_rxn_2028

>  <type>  (2) 
r2h

>  <mol_properties>  (2) 
{"0": {"label": "acceptor", "atom_type": "N3s"}, "4": {"label": "a_hydrogen", "atom_type": "H0"}}

>  <electro_map>  (2) 
{"4": {"R": null, "A": null, "D": null}, "0": {"R": 1.0172154224975685, "A": null, "D": null}, "1": {"R": 1.2532518527163545, "A": 104.78319852825351, "D": null}, "2": {"R": 1.1982279110581109, "A": 160.7207862492624, "D": 359.99966372913457}, "3": {"R": 2.4416692241182267, "A": 51.40183410831901, "D": 359.9999389984854}}

$$$$

     RDKit          3D

 13 11  0  0  0  0  0  0  0  0999 V2000
    1.4472   -1.0842    0.1303 N   0  0  0  0  0  0  0  0  0  0  0  0
    1.8186    0.1014    0.2951 N   0  0  0  0  0  2  0  0  0  0  0  0
    2.9385    0.5068    0.4265 O   0  0  0  0  0  1  0  0  0  0  0  0
    2.1782   -1.7910    0.1041 H   0  0  0  0  0  0  0  0  0  0  0  0
   -0.4275    0.9098    0.2185 O   0  0  0  0  0  1  0  0  0  0  0  0
   -0.8584   -0.2874    0.0479 N   0  0  0  0  0  2  0  0  0  0  0  0
   -2.0954   -0.5855   -0.0800 C   0  0  0  0  0  3  0  0  0  0  0  0
   -3.1694    0.4430   -0.0426 C   0  0  0  0  0  0  0  0  0  0  0  0
    0.1920   -1.0187    0.0430 H   0  0  0  0  0  0  0  0  0  0  0  0
   -2.3052   -1.6379   -0.2172 H   0  0  0  0  0  0  0  0  0  0  0  0
   -3.0127    1.1844   -0.8301 H   0  0  0  0  0  0  0  0  0  0  0  0
   -4.1502   -0.0103   -0.1690 H   0  0  0  0  0  0  0  0  0  0  0  0
   -3.1440    0.9841    0.9067 H   0  0  0  0  0  0  0  0  0  0  0  0
  1  4  1  0
  1  9  1  0
  1  2  1  0
  2  3  1  0
  5  6  1  0
  6  7  1  0
  7  8  1  0
  7 10  1  0
  8 12  1  0
  8 11  1  0
  8 13  1  0
M  RAD  5   2   2   3   2   5   2   6   2   7   2
M  END
>  <reaction>  (3) 
rmg_rxn_2028

>  <type>  (3) 
ts

>  <mol_properties>  (3) 
{"0": {"label": "*1", "atom_type": "N3s"}, "1": {"label": "*0", "atom_type": "N3s"}, "5": {"label": "*3", "atom_type": "N3s"}, "6": {"label": "*4", "atom_type": "Cs"}, "8": {"label": "*2", "atom_type": "H0"}}

$$$$
