
     RDKit          3D

 10  9  0  0  0  0  0  0  0  0999 V2000
    0.3117   -1.2364   -1.4844 C   0  0  0  0  0  0  0  0  0  0  0  0
    0.1710   -0.5074   -0.4030 C   0  0  0  0  0  0  0  0  0  0  0  0
    0.0896    0.1444    0.6961 C   0  0  0  0  0  0  0  0  0  0  0  0
   -0.5212    1.4452    1.0797 C   0  0  0  0  0  0  0  0  0  0  0  0
    1.1517   -1.0886   -2.1532 H   0  0  0  0  0  0  0  0  0  0  0  0
   -0.4188   -1.9901   -1.7534 H   0  0  0  0  0  0  0  0  0  0  0  0
    0.5928   -0.3432    1.5310 H   0  0  0  0  0  0  0  0  0  0  0  0
    0.2546    2.1264    1.4357 H   0  0  0  0  0  0  0  0  0  0  0  0
   -1.2426    1.3090    1.8886 H   0  0  0  0  0  0  0  0  0  0  0  0
   -1.0329    1.9069    0.2344 H   0  0  0  0  0  0  0  0  0  0  0  0
  1  2  2  0
  1  5  1  0
  1  6  1  0
  2  3  2  0
  3  4  1  0
  3  7  1  0
  4  8  1  0
  4  9  1  0
  4 10  1  0
M  END
>  <reaction>  (1) 
rmg_rxn_13858

>  <type>  (1) 
r1h

>  <mol_properties>  (1) 
{"2": {"label": "donator", "atom_type": "Cd"}, "6": {"label": "d_hydrogen", "atom_type": "H0"}}

>  <electro_map>  (1) 
{"6": {"R": null, "A": null, "D": null}, "2": {"R": 1.0900000456713745, "A": null, "D": null}, "1": {"R": 1.2803582600560002, "A": 113.60555487052922, "D": null}, "0": {"R": 1.3117648290977733, "A": 145.68040906878127, "D": 179.3410895922267}, "3": {"R": 3.8025640871765676, "A": 13.757112738195277, "D": 187.97365256573272}, "4": {"R": 4.435188873638713, "A": 12.302461400798173, "D": 101.22388290097854}, "5": {"R": 1.8545217566922534, "A": 78.52962807335696, "D": 9.002075557385025}, "7": {"R": 5.250666621437931, "A": 68.97306280235155, "D": 357.1020361137927}, "8": {"R": 1.7648369710048188, "A": 71.57734870659542, "D": 180.74923667230084}, "9": {"R": 1.7713854508711144, "A": 60.23917025390628, "D": 302.6428630348865}}

$$$$

     RDKit          3D

 15 14  0  0  0  0  0  0  0  0999 V2000
   -2.2878   -0.5366   -0.2469 H   0  0  0  0  0  0  0  0  0  0  0  0
   -1.7436   -1.0130    0.5654 C   0  0  0  0  0  0  0  0  0  0  0  0
   -0.8139   -0.0121    1.1841 C   0  0  0  0  0  0  0  0  0  0  0  0
    0.0696    1.0803    0.0293 S   0  0  0  0  0  0  0  0  0  0  0  0
    0.7276   -0.0987   -1.1740 C   0  0  0  0  0  0  0  0  0  0  0  0
    1.7043   -1.1141   -0.6044 C   0  0  0  0  0  0  0  0  0  0  0  0
   -1.2706   -1.8195    0.0098 H   0  0  0  0  0  0  0  0  0  0  0  0
   -2.5332   -1.3719    1.2213 H   0  0  0  0  0  0  0  0  0  0  0  0
   -0.0785   -0.5209    1.8157 H   0  0  0  0  0  0  0  0  0  0  0  0
   -1.3608    0.6758    1.8304 H   0  0  0  0  0  0  0  0  0  0  0  0
   -0.1060   -0.5877   -1.6815 H   0  0  0  0  0  0  0  0  0  0  0  0
    1.2207    0.5329   -1.9149 H   0  0  0  0  0  0  0  0  0  0  0  0
    1.2234   -1.7615    0.1312 H   0  0  0  0  0  0  0  0  0  0  0  0
    2.0929   -1.7533   -1.4002 H   0  0  0  0  0  0  0  0  0  0  0  0
    2.5445   -0.6176   -0.1177 H   0  0  0  0  0  0  0  0  0  0  0  0
  1  2  1  0
  2  3  1  0
  2  7  1  0
  2  8  1  0
  3  4  1  0
  3  9  1  0
  3 10  1  0
  4  5  1  0
  5  6  1  0
  5 11  1  0
  5 12  1  0
  6 13  1  0
  6 14  1  0
  6 15  1  0
M  END
>  <reaction>  (2) 
rmg_rxn_13858

>  <type>  (2) 
r2h

>  <mol_properties>  (2) 
{"0": {"label": "a_hydrogen", "atom_type": "H0"}, "1": {"label": "acceptor", "atom_type": "Cs"}}

>  <electro_map>  (2) 
{"0": {"R": null, "A": null, "D": null}, "1": {"R": 1.0875360263688774, "A": null, "D": null}, "2": {"R": 1.4995671283467815, "A": 109.02848189851585, "D": null}, "3": {"R": 1.8186440086286402, "A": 93.31087661638674, "D": 143.58665062877787}, "4": {"R": 1.8085812265444516, "A": 101.98561168477349, "D": 310.9236109368275}, "5": {"R": 1.5196728481031174, "A": 114.83712015627123, "D": 297.82449436017913}, "6": {"R": 3.1184403810488748, "A": 67.16261108829242, "D": 78.43569946389454}, "7": {"R": 1.806197554411007, "A": 137.9792174303458, "D": 276.99627021668897}, "8": {"R": 2.6650960489109305, "A": 65.47357374633671, "D": 349.36596945886936}, "9": {"R": 1.754056044810827, "A": 63.02234283389818, "D": 127.84534712588862}, "10": {"R": 3.937527732145954, "A": 62.654135884154414, "D": 285.85218099604236}, "11": {"R": 1.7522239858421835, "A": 98.90783062534771, "D": 273.079155740136}, "12": {"R": 3.0742004471540607, "A": 55.57677361497373, "D": 70.92800118215729}, "13": {"R": 1.7610836533666632, "A": 54.423730322910345, "D": 104.12474485013142}, "14": {"R": 1.7715851777153235, "A": 59.953545086555316, "D": 65.87785057895925}}

$$$$

     RDKit          3D

 24 22  0  0  0  0  0  0  0  0999 V2000
   -1.7865   -1.1557   -2.5446 C   0  0  0  0  0  0  0  0  0  0  0  0
   -1.9271   -0.4267   -1.4632 C   0  0  0  0  0  0  0  0  0  0  0  0
   -2.0086    0.2251   -0.3641 C   0  0  0  0  0  0  0  0  0  0  0  0
   -2.6194    1.5259    0.0195 C   0  0  0  0  0  0  0  0  0  0  0  0
   -0.9464   -1.0079   -3.2134 H   0  0  0  0  0  0  0  0  0  0  0  0
   -2.5170   -1.9095   -2.8136 H   0  0  0  0  0  0  0  0  0  0  0  0
   -1.4174   -0.3477    0.6167 H   0  0  0  0  0  0  0  0  0  0  0  0
   -1.8435    2.2070    0.3755 H   0  0  0  0  0  0  0  0  0  0  0  0
   -3.3407    1.3897    0.8284 H   0  0  0  0  0  0  0  0  0  0  0  0
   -3.1310    1.9876   -0.8258 H   0  0  0  0  0  0  0  0  0  0  0  0
   -0.7171   -0.9607    1.6621 C   0  0  0  0  0  3  0  0  0  0  0  0
    0.2126    0.0401    2.2808 C   0  0  0  0  0  0  0  0  0  0  0  0
    1.0961    1.1325    1.1260 S   0  0  0  0  0  0  0  0  0  0  0  0
    1.7541   -0.0465   -0.0773 C   0  0  0  0  0  0  0  0  0  0  0  0
    2.7308   -1.0619    0.4923 C   0  0  0  0  0  0  0  0  0  0  0  0
   -0.2441   -1.7673    1.1065 H   0  0  0  0  0  0  0  0  0  0  0  0
   -1.5067   -1.3196    2.3180 H   0  0  0  0  0  0  0  0  0  0  0  0
    0.9480   -0.4687    2.9124 H   0  0  0  0  0  0  0  0  0  0  0  0
   -0.3343    0.7280    2.9271 H   0  0  0  0  0  0  0  0  0  0  0  0
    0.9205   -0.5355   -0.5848 H   0  0  0  0  0  0  0  0  0  0  0  0
    2.2472    0.5851   -0.8182 H   0  0  0  0  0  0  0  0  0  0  0  0
    2.2499   -1.7093    1.2279 H   0  0  0  0  0  0  0  0  0  0  0  0
    3.1194   -1.7011   -0.3036 H   0  0  0  0  0  0  0  0  0  0  0  0
    3.5710   -0.5654    0.9789 H   0  0  0  0  0  0  0  0  0  0  0  0
  1  2  2  0
  1  5  1  0
  1  6  1  0
  2  3  2  0
  3  4  1  0
  3  7  1  0
  4  8  1  0
  4  9  1  0
  4 10  1  0
 11 12  1  0
 11 16  1  0
 11 17  1  0
 12 13  1  0
 12 18  1  0
 12 19  1  0
 13 14  1  0
 14 15  1  0
 14 20  1  0
 14 21  1  0
 15 22  1  0
 15 23  1  0
 15 24  1  0
M  RAD  1  11   2
M  END
>  <reaction>  (3) 
rmg_rxn_13858

>  <type>  (3) 
ts

>  <mol_properties>  (3) 
{"1": {"label": "*0", "atom_type": "Cdd"}, "2": {"label": "*1", "atom_type": "Cd"}, "6": {"label": "*2", "atom_type": "H0"}, "10": {"label": "*3", "atom_type": "Cs"}, "11": {"label": "*4", "atom_type": "Cs"}}

$$$$
