
     RDKit          3D

  2  1  0  0  0  0  0  0  0  0999 V2000
    0.0126    0.0044   -0.0447 S   0  0  0  0  0  1  0  0  0  0  0  0
   -0.3501   -0.1207    1.2392 H   0  0  0  0  0  0  0  0  0  0  0  0
  1  2  1  0
M  RAD  1   1   2
M  END
>  <reaction>  (1) 
rmg_rxn_14180

>  <type>  (1) 
r1h

>  <mol_properties>  (1) 
{"0": {"label": "donator", "atom_type": "S2s"}, "1": {"label": "d_hydrogen", "atom_type": "H0"}}

>  <electro_map>  (1) 
{"1": {"R": null, "A": null, "D": null}, "0": {"R": 1.33999997665633, "A": null, "D": null}}

$$$$

     RDKit          3D

 10  9  0  0  0  0  0  0  0  0999 V2000
   -0.5011   -1.2726   -1.8544 H   0  0  0  0  0  0  0  0  0  0  0  0
    1.2889    1.0610    0.9058 C   0  0  0  0  0  0  0  0  0  0  0  0
    0.2697    0.5198    0.3177 C   0  0  0  0  0  0  0  0  0  0  0  0
   -0.7691   -0.0394   -0.2713 C   0  0  0  0  0  0  0  0  0  0  0  0
   -0.7640   -1.3758   -0.8071 C   0  0  0  0  0  0  0  0  0  0  0  0
    2.0416    1.5997    0.3400 H   0  0  0  0  0  0  0  0  0  0  0  0
    1.4205    0.9921    1.9804 H   0  0  0  0  0  0  0  0  0  0  0  0
   -1.6635    0.5623   -0.4010 H   0  0  0  0  0  0  0  0  0  0  0  0
   -1.7275   -1.8536   -0.9499 H   0  0  0  0  0  0  0  0  0  0  0  0
    0.0400   -2.0346   -0.4980 H   0  0  0  0  0  0  0  0  0  0  0  0
  1  5  1  0
  2  3  2  0
  2  6  1  0
  2  7  1  0
  3  4  2  0
  4  5  1  0
  4  8  1  0
  5  9  1  0
  5 10  1  0
M  END
>  <reaction>  (2) 
rmg_rxn_14180

>  <type>  (2) 
r2h

>  <mol_properties>  (2) 
{"0": {"label": "a_hydrogen", "atom_type": "H0"}, "4": {"label": "acceptor", "atom_type": "Cs"}}

>  <electro_map>  (2) 
{"0": {"R": null, "A": null, "D": null}, "4": {"R": 1.0847122085821117, "A": null, "D": null}, "3": {"R": 1.4397705225090427, "A": 105.77694148687567, "D": null}, "2": {"R": 1.3186100022188745, "A": 120.22185904087524, "D": 106.4069047129244}, "1": {"R": 1.0, "A": 90.0, "D": 180.0}, "5": {"R": 1.295134652033953, "A": 90.0, "D": 180.0}, "6": {"R": 1.0848761661899953, "A": 121.36518080837651, "D": 87.99233051275122}, "7": {"R": 1.8563005048772003, "A": 31.178038985280825, "D": 180.00704663236652}, "8": {"R": 3.9200785500577724, "A": 76.24901919983724, "D": 345.51726517317803}, "9": {"R": 2.478343046776883, "A": 105.17406358062287, "D": 101.95384657496291}}

$$$$

     RDKit          3D

 11  9  0  0  0  0  0  0  0  0999 V2000
    0.1764   -0.6181   -2.2051 S   0  0  0  0  0 15  0  0  0  0  0  0
   -0.2373   -0.7607   -0.7409 H   0  0  0  0  0  0  0  0  0  0  0  0
    1.4663    1.5390    2.3633 C   0  0  0  0  0  0  0  0  0  0  0  0
    0.4472    0.9978    1.7752 C   0  0  0  0  0  0  0  0  0  0  0  0
   -0.5916    0.4386    1.1862 C   0  0  0  0  0  0  0  0  0  0  0  0
   -0.5865   -0.8978    0.6504 C   0  0  0  0  0  0  0  0  0  0  0  0
    2.2191    2.0776    1.7975 H   0  0  0  0  0  0  0  0  0  0  0  0
    1.5980    1.4701    3.4379 H   0  0  0  0  0  0  0  0  0  0  0  0
   -1.4860    1.0403    1.0566 H   0  0  0  0  0  0  0  0  0  0  0  0
   -1.5500   -1.3757    0.5076 H   0  0  0  0  0  0  0  0  0  0  0  0
    0.2175   -1.5566    0.9595 H   0  0  0  0  0  0  0  0  0  0  0  0
  2  6  1  0
  3  4  2  0
  3  7  1  0
  3  8  1  0
  4  5  2  0
  5  6  1  0
  5  9  1  0
  6 10  1  0
  6 11  1  0
M  END
>  <reaction>  (3) 
rmg_rxn_14180

>  <type>  (3) 
ts

>  <mol_properties>  (3) 
{"0": {"label": "*3", "atom_type": "S2s"}, "1": {"label": "*2", "atom_type": "H0"}, "4": {"label": "*0", "atom_type": "Cd"}, "5": {"label": "*1", "atom_type": "Cs"}}

$$$$
