
     RDKit          3D

 10  9  0  0  0  0  0  0  0  0999 V2000
   -0.0565    1.9547   -0.0901 C   0  0  0  0  0  0  0  0  0  0  0  0
    0.1298    0.6568   -0.0296 C   0  0  0  0  0  0  0  0  0  0  0  0
    0.4007   -0.5923    0.0279 C   0  0  0  0  0  0  0  0  0  0  0  0
   -0.4288   -1.8266    0.0835 C   0  0  0  0  0  0  0  0  0  0  0  0
   -0.1462    2.5505    0.8104 H   0  0  0  0  0  0  0  0  0  0  0  0
   -0.1469    2.4637   -1.0424 H   0  0  0  0  0  0  0  0  0  0  0  0
    1.4693   -0.8072    0.0365 H   0  0  0  0  0  0  0  0  0  0  0  0
   -0.2122   -2.3946    0.9908 H   0  0  0  0  0  0  0  0  0  0  0  0
   -0.2090   -2.4754   -0.7671 H   0  0  0  0  0  0  0  0  0  0  0  0
   -1.4931   -1.5887    0.0707 H   0  0  0  0  0  0  0  0  0  0  0  0
  1  2  2  0
  1  5  1  0
  1  6  1  0
  2  3  2  0
  3  4  1  0
  3  7  1  0
  4  8  1  0
  4  9  1  0
  4 10  1  0
M  END
>  <reaction>  (1) 
rmg_rxn_13882

>  <type>  (1) 
r1h

>  <mol_properties>  (1) 
{"2": {"label": "donator", "atom_type": "Cd"}, "6": {"label": "d_hydrogen", "atom_type": "H0"}}

>  <electro_map>  (1) 
{"6": {"R": null, "A": null, "D": null}, "2": {"R": 1.0899999909882152, "A": null, "D": null}, "1": {"R": 1.279432263380989, "A": 113.59722648128127, "D": null}, "0": {"R": 1.3126356872175835, "A": 145.73153455447934, "D": 180.0539657472043}, "3": {"R": 3.8035964811486314, "A": 13.776687515894803, "D": 179.3348984360288}, "4": {"R": 4.446083471286001, "A": 12.178646207415952, "D": 98.63117461114811}, "5": {"R": 1.8548166514472098, "A": 77.9106654344582, "D": 9.019358929852695}, "7": {"R": 5.266997116119946, "A": 69.97615793672628, "D": 357.0424351374093}, "8": {"R": 1.7598105370890313, "A": 69.92144791216734, "D": 180.13192920097904}, "9": {"R": 1.7711428278318495, "A": 60.20957101108879, "D": 302.73619346099923}}

$$$$

     RDKit          3D

  9  8  0  0  0  0  0  0  0  0999 V2000
   -1.3829   -1.0483   -0.0723 C   0  0  0  0  0  0  0  0  0  0  0  0
   -0.8080    0.3200    0.0916 C   0  0  0  0  0  0  0  0  0  0  0  0
    1.0169    0.3598   -0.0389 S   0  0  0  0  0  0  0  0  0  0  0  0
   -1.1960   -1.5202   -1.0335 H   0  0  0  0  0  0  0  0  0  0  0  0
   -1.2346   -1.7238    0.7676 H   0  0  0  0  0  0  0  0  0  0  0  0
   -1.1060    0.7702    1.0372 H   0  0  0  0  0  0  0  0  0  0  0  0
   -1.1483    0.9831   -0.7051 H   0  0  0  0  0  0  0  0  0  0  0  0
    1.2656   -0.4273    1.0160 H   0  0  0  0  0  0  0  0  0  0  0  0
   -2.4563   -0.8736   -0.0757 H   0  0  0  0  0  0  0  0  0  0  0  0
  1  2  1  0
  1  4  1  0
  1  5  1  0
  1  9  1  0
  2  3  1  0
  2  6  1  0
  2  7  1  0
  3  8  1  0
M  END
>  <reaction>  (2) 
rmg_rxn_13882

>  <type>  (2) 
r2h

>  <mol_properties>  (2) 
{"0": {"label": "acceptor", "atom_type": "Cs"}, "8": {"label": "a_hydrogen", "atom_type": "H0"}}

>  <electro_map>  (2) 
{"8": {"R": null, "A": null, "D": null}, "0": {"R": 1.0874957972478225, "A": null, "D": null}, "1": {"R": 1.4932240186570833, "A": 103.47929046887737, "D": null}, "2": {"R": 1.829947647117145, "A": 144.27848608596477, "D": 9.291322415920114}, "7": {"R": 1.3394734841371145, "A": 96.67581226692127, "D": 297.8892278009907}, "3": {"R": 3.3844927343740543, "A": 65.02487236040491, "D": 44.68922314326514}, "4": {"R": 1.8130512057109776, "A": 56.64519357740005, "D": 216.03726102176535}, "5": {"R": 2.5119039369365255, "A": 89.65588409782798, "D": 59.320813921796876}, "6": {"R": 1.7557345845619725, "A": 90.72595273661646, "D": 2.6231600823258185}}

$$$$

     RDKit          3D

 18 16  0  0  0  0  0  0  0  0999 V2000
    0.6867   -0.9978   -0.0059 C   0  0  0  0  0  3  0  0  0  0  0  0
    1.2616    0.3706    0.1580 C   0  0  0  0  0  0  0  0  0  0  0  0
    3.0864    0.4104    0.0275 S   0  0  0  0  0  0  0  0  0  0  0  0
    0.8735   -1.4696   -0.9671 H   0  0  0  0  0  0  0  0  0  0  0  0
    0.8349   -1.6733    0.8340 H   0  0  0  0  0  0  0  0  0  0  0  0
    0.9636    0.8208    1.1036 H   0  0  0  0  0  0  0  0  0  0  0  0
    0.9213    1.0337   -0.6387 H   0  0  0  0  0  0  0  0  0  0  0  0
    3.3352   -0.3767    1.0824 H   0  0  0  0  0  0  0  0  0  0  0  0
   -2.4090    2.0273   -0.1385 C   0  0  0  0  0  0  0  0  0  0  0  0
   -2.2227    0.7294   -0.0780 C   0  0  0  0  0  0  0  0  0  0  0  0
   -1.9518   -0.5197   -0.0205 C   0  0  0  0  0  0  0  0  0  0  0  0
   -2.7813   -1.7540    0.0351 C   0  0  0  0  0  0  0  0  0  0  0  0
   -2.4987    2.6231    0.7620 H   0  0  0  0  0  0  0  0  0  0  0  0
   -2.4994    2.5363   -1.0908 H   0  0  0  0  0  0  0  0  0  0  0  0
   -0.6843   -0.7746   -0.0102 H   0  0  0  0  0  0  0  0  0  0  0  0
   -2.5648   -2.3220    0.9425 H   0  0  0  0  0  0  0  0  0  0  0  0
   -2.5616   -2.4028   -0.8155 H   0  0  0  0  0  0  0  0  0  0  0  0
   -3.8456   -1.5161    0.0223 H   0  0  0  0  0  0  0  0  0  0  0  0
  1  2  1  0
  1  4  1  0
  1  5  1  0
  2  3  1  0
  2  6  1  0
  2  7  1  0
  3  8  1  0
  9 10  2  0
  9 13  1  0
  9 14  1  0
 10 11  2  0
 11 12  1  0
 11 15  1  0
 12 16  1  0
 12 17  1  0
 12 18  1  0
M  RAD  1   1   2
M  END
>  <reaction>  (3) 
rmg_rxn_13882

>  <type>  (3) 
ts

>  <mol_properties>  (3) 
{"0": {"label": "*3", "atom_type": "Cs"}, "1": {"label": "*4", "atom_type": "Cs"}, "9": {"label": "*0", "atom_type": "Cdd"}, "10": {"label": "*1", "atom_type": "Cd"}, "14": {"label": "*2", "atom_type": "H0"}}

$$$$
