
     RDKit          3D

  5  4  0  0  0  0  0  0  0  0999 V2000
   -0.0643    0.6665    0.8518 N   0  0  0  0  0  0  0  0  0  0  0  0
    0.4355   -0.1235   -0.0240 N   0  0  0  0  0  0  0  0  0  0  0  0
   -0.2877   -0.6183   -0.8540 O   0  0  0  0  0  0  0  0  0  0  0  0
   -0.9929    1.0314    0.6800 H   0  0  0  0  0  0  0  0  0  0  0  0
    0.6270    1.1486    1.4126 H   0  0  0  0  0  0  0  0  0  0  0  0
  1  2  1  0
  1  4  1  0
  1  5  1  0
  2  3  2  0
M  END
>  <reaction>  (1) 
rmg_rxn_2726

>  <type>  (1) 
r1h

>  <mol_properties>  (1) 
{"0": {"label": "donator", "atom_type": "N3s"}, "3": {"label": "d_hydrogen", "atom_type": "H0"}}

>  <electro_map>  (1) 
{"3": {"R": null, "A": null, "D": null}, "0": {"R": 1.0123416941710646, "A": null, "D": null}, "1": {"R": 1.2809971350519451, "A": 117.65339073742886, "D": null}, "2": {"R": 1.2069186062394999, "A": 92.96147064358328, "D": 166.7785934721285}, "4": {"R": 3.0158918984060246, "A": 20.164840650573595, "D": 8.206570339261715}}

$$$$

     RDKit          3D

  9  8  0  0  0  0  0  0  0  0999 V2000
    1.7210    1.1496    0.0684 H   0  0  0  0  0  0  0  0  0  0  0  0
    0.7456    1.5806   -0.1539 C   0  0  0  0  0  0  0  0  0  0  0  0
   -0.1598    0.5115   -0.6882 C   0  0  0  0  0  0  0  0  0  0  0  0
   -0.3240   -0.9434    0.3868 S   0  0  0  0  0  0  0  0  0  0  0  0
    0.9933    2.3675   -0.8656 H   0  0  0  0  0  0  0  0  0  0  0  0
    0.4760    1.9613    0.8302 H   0  0  0  0  0  0  0  0  0  0  0  0
    0.1537    0.1868   -1.6778 H   0  0  0  0  0  0  0  0  0  0  0  0
   -1.1780    0.9045   -0.7789 H   0  0  0  0  0  0  0  0  0  0  0  0
    0.8911   -1.4438    0.1225 H   0  0  0  0  0  0  0  0  0  0  0  0
  1  2  1  0
  2  3  1  0
  2  5  1  0
  2  6  1  0
  3  4  1  0
  3  7  1  0
  3  8  1  0
  4  9  1  0
M  END
>  <reaction>  (2) 
rmg_rxn_2726

>  <type>  (2) 
r2h

>  <mol_properties>  (2) 
{"0": {"label": "a_hydrogen", "atom_type": "H0"}, "1": {"label": "acceptor", "atom_type": "Cs"}}

>  <electro_map>  (2) 
{"0": {"R": null, "A": null, "D": null}, "1": {"R": 1.089310163362017, "A": null, "D": null}, "2": {"R": 1.499405107152168, "A": 109.35184343014778, "D": null}, "3": {"R": 1.816388136250408, "A": 96.30366218739918, "D": 228.4617907873445}, "8": {"R": 1.3404347086838373, "A": 95.76347806045032, "D": 286.20324856222794}, "4": {"R": 3.938656833797398, "A": 73.2449027097853, "D": 19.69744247890047}, "5": {"R": 1.8189229614234643, "A": 62.78077981413838, "D": 54.85781282126202}, "6": {"R": 3.0891495224962595, "A": 53.203271765258194, "D": 332.0166359855438}, "7": {"R": 1.7597006596334168, "A": 55.24416719631269, "D": 246.82032543446923}}

$$$$

     RDKit          3D

 13 11  0  0  0  0  0  0  0  0999 V2000
    1.7571    0.7526    0.5258 N   0  0  0  0  0  0  0  0  0  0  0  0
    2.2569   -0.0374   -0.3500 N   0  0  0  0  0  0  0  0  0  0  0  0
    1.5338   -0.5321   -1.1800 O   0  0  0  0  0  0  0  0  0  0  0  0
    0.6026    1.2063    0.3121 H   0  0  0  0  0  0  0  0  0  0  0  0
    2.4484    1.2347    1.0866 H   0  0  0  0  0  0  0  0  0  0  0  0
   -0.6184    1.7458    0.0338 C   0  0  0  0  0  3  0  0  0  0  0  0
   -1.5238    0.6767   -0.5004 C   0  0  0  0  0  0  0  0  0  0  0  0
   -1.6880   -0.7782    0.5746 S   0  0  0  0  0  0  0  0  0  0  0  0
   -0.3707    2.5326   -0.6778 H   0  0  0  0  0  0  0  0  0  0  0  0
   -0.8880    2.1264    1.0180 H   0  0  0  0  0  0  0  0  0  0  0  0
   -1.2103    0.3520   -1.4901 H   0  0  0  0  0  0  0  0  0  0  0  0
   -2.5420    1.0697   -0.5911 H   0  0  0  0  0  0  0  0  0  0  0  0
   -0.4729   -1.2787    0.3103 H   0  0  0  0  0  0  0  0  0  0  0  0
  1  2  1  0
  1  4  1  0
  1  5  1  0
  2  3  2  0
  6  7  1  0
  6  9  1  0
  6 10  1  0
  7  8  1  0
  7 11  1  0
  7 12  1  0
  8 13  1  0
M  RAD  1   6   2
M  END
>  <reaction>  (3) 
rmg_rxn_2726

>  <type>  (3) 
ts

>  <mol_properties>  (3) 
{"0": {"label": "*1", "atom_type": "N3s"}, "1": {"label": "*0", "atom_type": "N3d"}, "3": {"label": "*2", "atom_type": "H0"}, "5": {"label": "*3", "atom_type": "Cs"}, "6": {"label": "*4", "atom_type": "Cs"}}

$$$$
