
     RDKit          3D

 10  9  0  0  0  0  0  0  0  0999 V2000
   -1.5761    1.0137   -0.2488 C   0  0  0  0  0  0  0  0  0  0  0  0
   -0.5175    0.4214    0.1517 C   0  0  0  0  0  0  0  0  0  0  0  0
    0.4985   -0.3141    0.5534 C   0  0  0  0  0  0  0  0  0  0  0  0
    1.4737   -0.9864   -0.3680 C   0  0  0  0  0  0  0  0  0  0  0  0
   -2.4573    0.3989   -0.3562 H   0  0  0  0  0  0  0  0  0  0  0  0
   -1.7484    2.0512   -0.4932 H   0  0  0  0  0  0  0  0  0  0  0  0
    0.6626   -0.4175    1.6220 H   0  0  0  0  0  0  0  0  0  0  0  0
    1.5063   -2.0622   -0.1776 H   0  0  0  0  0  0  0  0  0  0  0  0
    2.4840   -0.6010   -0.2100 H   0  0  0  0  0  0  0  0  0  0  0  0
    1.2037   -0.8283   -1.4112 H   0  0  0  0  0  0  0  0  0  0  0  0
  1  2  2  0
  1  5  1  0
  1  6  1  0
  2  3  2  0
  3  4  1  0
  3  7  1  0
  4  8  1  0
  4  9  1  0
  4 10  1  0
M  END
>  <reaction>  (1) 
rmg_rxn_14025

>  <type>  (1) 
r1h

>  <mol_properties>  (1) 
{"0": {"label": "donator", "atom_type": "Cd"}, "4": {"label": "d_hydrogen", "atom_type": "H0"}}

>  <electro_map>  (1) 
{"4": {"R": null, "A": null, "D": null}, "0": {"R": 1.0797728508918023, "A": null, "D": null}, "1": {"R": 1.2774931560713756, "A": 116.32337567921272, "D": null}, "2": {"R": 1.316963462736967, "A": 144.80710232294552, "D": 181.19655871896174}, "3": {"R": 1.5006784653105902, "A": 124.35006883519527, "D": 85.62248802544055}, "5": {"R": 4.430008488080782, "A": 40.314269683286994, "D": 12.039584408842428}, "6": {"R": 4.047469283253049, "A": 29.971914866585287, "D": 6.630902429545434}, "7": {"R": 2.5797957122121216, "A": 102.65608857996602, "D": 342.74687573118837}, "8": {"R": 1.758413593515469, "A": 70.42452945661967, "D": 83.00863894979888}, "9": {"R": 1.7702403552984955, "A": 60.24342555223568, "D": 259.26138698085555}}

$$$$

     RDKit          3D

 12 11  0  0  0  0  0  0  0  0999 V2000
   -1.3862    1.4049    0.0235 C   0  0  0  0  0  0  0  0  0  0  0  0
   -0.2435    0.5551   -0.4574 C   0  0  0  0  0  0  0  0  0  0  0  0
    0.1771   -0.5678    0.4534 C   0  0  0  0  0  0  0  0  0  0  0  0
    1.2634   -1.3144   -0.0455 O   0  0  0  0  0  0  0  0  0  0  0  0
   -1.5654    2.2479   -0.6450 H   0  0  0  0  0  0  0  0  0  0  0  0
   -2.3137    0.8243    0.0757 H   0  0  0  0  0  0  0  0  0  0  0  0
   -1.1899    1.7999    1.0232 H   0  0  0  0  0  0  0  0  0  0  0  0
   -0.3086    0.2454   -1.5005 H   0  0  0  0  0  0  0  0  0  0  0  0
    0.3966   -0.1651    1.4524 H   0  0  0  0  0  0  0  0  0  0  0  0
   -0.6515   -1.2751    0.5717 H   0  0  0  0  0  0  0  0  0  0  0  0
    2.0452   -0.7545   -0.0211 H   0  0  0  0  0  0  0  0  0  0  0  0
    0.6290    1.2084   -0.4646 H   0  0  0  0  0  0  0  0  0  0  0  0
  1  2  1  0
  1  5  1  0
  1  6  1  0
  1  7  1  0
  2  3  1  0
  2  8  1  0
  2 12  1  0
  3  4  1  0
  3  9  1  0
  3 10  1  0
  4 11  1  0
M  END
>  <reaction>  (2) 
rmg_rxn_14025

>  <type>  (2) 
r2h

>  <mol_properties>  (2) 
{"1": {"label": "acceptor", "atom_type": "Cs"}, "11": {"label": "a_hydrogen", "atom_type": "H0"}}

>  <electro_map>  (2) 
{"11": {"R": null, "A": null, "D": null}, "1": {"R": 1.0900116931218091, "A": null, "D": null}, "2": {"R": 1.5058264425711498, "A": 103.14137723045927, "D": null}, "3": {"R": 1.409389636181538, "A": 97.5025013372207, "D": 123.6565777178231}, "0": {"R": 3.7973424050815674, "A": 22.544657068436905, "D": 0.7564393868239843}, "10": {"R": 4.054592006492309, "A": 13.566329265049196, "D": 116.77282760808089}, "4": {"R": 4.737108303978089, "A": 11.14008378728674, "D": 130.64685798610586}, "5": {"R": 1.762352400206448, "A": 75.98298556129501, "D": 336.0160672930916}, "6": {"R": 1.7641475876593522, "A": 60.16433544805349, "D": 67.19199038397224}, "7": {"R": 3.0922394735123366, "A": 57.673943100158624, "D": 295.42966424748647}, "8": {"R": 3.0635391340836517, "A": 49.18187485513313, "D": 247.8959981291686}, "9": {"R": 1.7624903847722957, "A": 57.715407819440735, "D": 108.76092866141516}}

$$$$

     RDKit          3D

 21 19  0  0  0  0  0  0  0  0999 V2000
   -3.0600    0.8581    0.1074 C   0  0  0  0  0  0  0  0  0  0  0  0
   -1.9173    0.0083   -0.3735 C   0  0  0  0  0  3  0  0  0  0  0  0
   -1.4967   -1.1147    0.5373 C   0  0  0  0  0  0  0  0  0  0  0  0
   -0.4104   -1.8613    0.0384 O   0  0  0  0  0  0  0  0  0  0  0  0
   -3.2392    1.7010   -0.5611 H   0  0  0  0  0  0  0  0  0  0  0  0
   -3.9874    0.2775    0.1597 H   0  0  0  0  0  0  0  0  0  0  0  0
   -2.8637    1.2531    1.1071 H   0  0  0  0  0  0  0  0  0  0  0  0
   -1.9823   -0.3014   -1.4165 H   0  0  0  0  0  0  0  0  0  0  0  0
   -1.2771   -0.7119    1.5363 H   0  0  0  0  0  0  0  0  0  0  0  0
   -2.3253   -1.8220    0.6557 H   0  0  0  0  0  0  0  0  0  0  0  0
    0.3714   -1.3013    0.0628 H   0  0  0  0  0  0  0  0  0  0  0  0
    0.2449    1.5719   -0.2500 C   0  0  0  0  0  0  0  0  0  0  0  0
    1.3036    0.9796    0.1505 C   0  0  0  0  0  0  0  0  0  0  0  0
    2.3195    0.2441    0.5522 C   0  0  0  0  0  0  0  0  0  0  0  0
    3.2947   -0.4282   -0.3693 C   0  0  0  0  0  0  0  0  0  0  0  0
   -0.8403    0.8147   -0.3823 H   0  0  0  0  0  0  0  0  0  0  0  0
    0.0726    2.6094   -0.4944 H   0  0  0  0  0  0  0  0  0  0  0  0
    2.4837    0.1407    1.6208 H   0  0  0  0  0  0  0  0  0  0  0  0
    3.3274   -1.5039   -0.1788 H   0  0  0  0  0  0  0  0  0  0  0  0
    4.3050   -0.0427   -0.2113 H   0  0  0  0  0  0  0  0  0  0  0  0
    3.0247   -0.2701   -1.4125 H   0  0  0  0  0  0  0  0  0  0  0  0
  1  2  1  0
  1  5  1  0
  1  6  1  0
  1  7  1  0
  2  3  1  0
  2  8  1  0
  3  4  1  0
  3  9  1  0
  3 10  1  0
  4 11  1  0
 12 13  2  0
 12 16  1  0
 12 17  1  0
 13 14  2  0
 14 15  1  0
 14 18  1  0
 15 19  1  0
 15 20  1  0
 15 21  1  0
M  RAD  1   2   2
M  END
>  <reaction>  (3) 
rmg_rxn_14025

>  <type>  (3) 
ts

>  <mol_properties>  (3) 
{"1": {"label": "*3", "atom_type": "Cs"}, "2": {"label": "*4", "atom_type": "Cs"}, "11": {"label": "*1", "atom_type": "Cd"}, "12": {"label": "*0", "atom_type": "Cdd"}, "15": {"label": "*2", "atom_type": "H0"}}

$$$$
