
     RDKit          3D

  9  8  0  0  0  0  0  0  0  0999 V2000
    0.1983    0.4029    1.6954 C   0  0  0  0  0  0  0  0  0  0  0  0
    0.0867   -0.6266    0.6035 C   0  0  0  0  0  0  0  0  0  0  0  0
   -0.0867    0.0723   -1.0661 S   0  0  0  0  0  0  0  0  0  0  0  0
   -0.7346    0.9647    1.7259 H   0  0  0  0  0  0  0  0  0  0  0  0
    0.9661    1.1541    1.5200 H   0  0  0  0  0  0  0  0  0  0  0  0
    0.2754   -0.0308    2.6929 H   0  0  0  0  0  0  0  0  0  0  0  0
   -0.7418   -1.3100    0.7920 H   0  0  0  0  0  0  0  0  0  0  0  0
    0.9935   -1.2348    0.5479 H   0  0  0  0  0  0  0  0  0  0  0  0
   -1.2338    0.7259   -0.8348 H   0  0  0  0  0  0  0  0  0  0  0  0
  1  2  1  0
  1  4  1  0
  1  5  1  0
  1  6  1  0
  2  3  1  0
  2  7  1  0
  2  8  1  0
  3  9  1  0
M  END
>  <reaction>  (1) 
rmg_rxn_2764

>  <type>  (1) 
r1h

>  <mol_properties>  (1) 
{"0": {"label": "donator", "atom_type": "Cs"}, "3": {"label": "d_hydrogen", "atom_type": "H0"}}

>  <electro_map>  (1) 
{"3": {"R": null, "A": null, "D": null}, "0": {"R": 1.089428402089143, "A": null, "D": null}, "1": {"R": 1.504858572515273, "A": 108.03697585596848, "D": null}, "2": {"R": 1.8182712619628782, "A": 99.2774251294767, "D": 236.0892404140339}, "8": {"R": 1.340350219380807, "A": 96.34809879216311, "D": 299.095000839767}, "4": {"R": 3.250849832784489, "A": 67.04991917744377, "D": 45.986836017162226}, "5": {"R": 1.8046861128368248, "A": 97.19708069876863, "D": 259.3776962217609}, "6": {"R": 2.506851154633401, "A": 89.85718531035596, "D": 26.12456895982921}, "7": {"R": 1.754031374403887, "A": 71.46942969685854, "D": 58.31534538650363}}

$$$$

     RDKit          3D

  9  8  0  0  0  0  0  0  0  0999 V2000
    1.2820   -1.6526    0.6039 H   0  0  0  0  0  0  0  0  0  0  0  0
    0.3708   -1.0650    0.5654 C   0  0  0  0  0  0  0  0  0  0  0  0
    0.4046    0.0152   -0.1848 C   0  0  0  0  0  0  0  0  0  0  0  0
   -0.7234    0.9883   -0.3641 C   0  0  0  0  0  0  0  0  0  0  0  0
   -0.4522   -1.4312    1.1700 H   0  0  0  0  0  0  0  0  0  0  0  0
    1.3207    0.2406   -0.7294 H   0  0  0  0  0  0  0  0  0  0  0  0
   -0.4215    1.9876   -0.0411 H   0  0  0  0  0  0  0  0  0  0  0  0
   -1.6030    0.6913    0.2072 H   0  0  0  0  0  0  0  0  0  0  0  0
   -1.0030    1.0624   -1.4179 H   0  0  0  0  0  0  0  0  0  0  0  0
  1  2  1  0
  2  3  2  3
  2  5  1  0
  3  4  1  0
  3  6  1  0
  4  7  1  0
  4  8  1  0
  4  9  1  0
M  END
>  <reaction>  (2) 
rmg_rxn_2764

>  <type>  (2) 
r2h

>  <mol_properties>  (2) 
{"0": {"label": "a_hydrogen", "atom_type": "H0"}, "1": {"label": "acceptor", "atom_type": "Cd"}}

>  <electro_map>  (2) 
{"0": {"R": null, "A": null, "D": null}, "1": {"R": 1.084921327103082, "A": null, "D": null}, "2": {"R": 1.3155158226398433, "A": 116.32161961594493, "D": null}, "3": {"R": 1.5005481036470116, "A": 153.95501226607539, "D": 2.448528570707129}, "4": {"R": 2.877684293756223, "A": 47.16974051394405, "D": 0.05226844667705906}, "5": {"R": 3.0896036124683914, "A": 43.231957786598464, "D": 0.054783633976568706}, "6": {"R": 2.56144804412732, "A": 79.25491203746137, "D": 20.544100686428056}, "7": {"R": 1.77143417337736, "A": 89.55450735955303, "D": 331.85807178128306}, "8": {"R": 1.7716096709668945, "A": 59.48660890811005, "D": 293.09624767994484}}

$$$$

     RDKit          3D

 17 15  0  0  0  0  0  0  0  0999 V2000
    1.1345   -0.5427    1.2760 C   0  0  0  0  0  0  0  0  0  0  0  0
    1.0230   -1.5722    0.1841 C   0  0  0  0  0  0  0  0  0  0  0  0
    0.8496   -0.8733   -1.4855 S   0  0  0  0  0  0  0  0  0  0  0  0
    0.0340    0.1201    1.3120 H   0  0  0  0  0  0  0  0  0  0  0  0
    1.9024    0.2085    1.1006 H   0  0  0  0  0  0  0  0  0  0  0  0
    1.2117   -0.9764    2.2735 H   0  0  0  0  0  0  0  0  0  0  0  0
    0.1945   -2.2556    0.3726 H   0  0  0  0  0  0  0  0  0  0  0  0
    1.9298   -2.1804    0.1285 H   0  0  0  0  0  0  0  0  0  0  0  0
   -0.2975   -0.2197   -1.2542 H   0  0  0  0  0  0  0  0  0  0  0  0
   -1.1349    0.8740    1.2626 C   0  0  0  0  0  3  0  0  0  0  0  0
   -1.1012    1.9541    0.5125 C   0  0  0  0  0  0  0  0  0  0  0  0
   -2.2292    2.9272    0.3331 C   0  0  0  0  0  0  0  0  0  0  0  0
   -1.9580    0.5077    1.8673 H   0  0  0  0  0  0  0  0  0  0  0  0
   -0.1851    2.1795   -0.0322 H   0  0  0  0  0  0  0  0  0  0  0  0
   -1.9272    3.9265    0.6562 H   0  0  0  0  0  0  0  0  0  0  0  0
   -3.1088    2.6302    0.9044 H   0  0  0  0  0  0  0  0  0  0  0  0
   -2.5088    3.0013   -0.7207 H   0  0  0  0  0  0  0  0  0  0  0  0
  1  2  1  0
  1  4  1  0
  1  5  1  0
  1  6  1  0
  2  3  1  0
  2  7  1  0
  2  8  1  0
  3  9  1  0
 10 11  2  3
 10 13  1  0
 11 12  1  0
 11 14  1  0
 12 15  1  0
 12 16  1  0
 12 17  1  0
M  RAD  1  10   2
M  END
>  <reaction>  (3) 
rmg_rxn_2764

>  <type>  (3) 
ts

>  <mol_properties>  (3) 
{"0": {"label": "*1", "atom_type": "Cs"}, "1": {"label": "*0", "atom_type": "Cs"}, "3": {"label": "*2", "atom_type": "H0"}, "9": {"label": "*3", "atom_type": "Cd"}, "10": {"label": "*4", "atom_type": "Cd"}}

$$$$
