
     RDKit          3D

 10  9  0  0  0  0  0  0  0  0999 V2000
    0.1603    1.0658    1.5539 C   0  0  0  0  0  0  0  0  0  0  0  0
    0.0815    0.1585    0.6585 C   0  0  0  0  0  0  0  0  0  0  0  0
   -0.1213   -0.7517   -0.2698 C   0  0  0  0  0  0  0  0  0  0  0  0
   -0.0793   -0.4804   -1.7441 C   0  0  0  0  0  0  0  0  0  0  0  0
   -0.7628    1.5570    1.8237 H   0  0  0  0  0  0  0  0  0  0  0  0
    1.0185    1.4454    2.0883 H   0  0  0  0  0  0  0  0  0  0  0  0
   -0.3198   -1.7708    0.0490 H   0  0  0  0  0  0  0  0  0  0  0  0
    0.6940   -1.0806   -2.2304 H   0  0  0  0  0  0  0  0  0  0  0  0
    0.1247    0.5707   -1.9449 H   0  0  0  0  0  0  0  0  0  0  0  0
   -1.0319   -0.7429   -2.2120 H   0  0  0  0  0  0  0  0  0  0  0  0
  1  2  2  0
  1  5  1  0
  1  6  1  0
  2  3  2  0
  3  4  1  0
  3  7  1  0
  4  8  1  0
  4  9  1  0
  4 10  1  0
M  END
>  <reaction>  (1) 
rmg_rxn_13983

>  <type>  (1) 
r1h

>  <mol_properties>  (1) 
{"0": {"label": "donator", "atom_type": "Cd"}, "4": {"label": "d_hydrogen", "atom_type": "H0"}}

>  <electro_map>  (1) 
{"4": {"R": null, "A": null, "D": null}, "0": {"R": 1.079887166310291, "A": null, "D": null}, "1": {"R": 1.277136642977969, "A": 116.46038730085097, "D": null}, "2": {"R": 1.3158216225310524, "A": 145.78718402472126, "D": 180.13444398694705}, "3": {"R": 1.4995980518944012, "A": 124.34090401275203, "D": 88.09041210516381}, "5": {"R": 4.427219140456789, "A": 40.0614924111152, "D": 12.875333895374016}, "6": {"R": 4.036539082693649, "A": 29.990237168434696, "D": 6.492218220255576}, "7": {"R": 2.5883176055482764, "A": 95.88745289396734, "D": 22.20703330957892}, "8": {"R": 1.769856202054887, "A": 88.89752433844933, "D": 316.0707812527084}, "9": {"R": 1.7704275526485815, "A": 59.57384186056723, "D": 292.54636022524517}}

$$$$

     RDKit          3D

 14 13  0  0  0  0  0  0  0  0999 V2000
    1.4335    0.0127    0.1603 H   0  0  0  0  0  0  0  0  0  0  0  0
    0.6029    1.8026   -0.4655 C   0  0  0  0  0  0  0  0  0  0  0  0
    0.4633    0.5000    0.2726 C   0  0  0  0  0  0  0  0  0  0  0  0
   -0.4874   -0.5083   -0.3151 C   0  0  0  0  0  0  0  0  0  0  0  0
   -0.6113   -1.7792    0.5144 C   0  0  0  0  0  0  0  0  0  0  0  0
   -0.3356    2.3678   -0.4475 H   0  0  0  0  0  0  0  0  0  0  0  0
    0.8613    1.6280   -1.5129 H   0  0  0  0  0  0  0  0  0  0  0  0
    1.3777    2.4332   -0.0270 H   0  0  0  0  0  0  0  0  0  0  0  0
    0.3725    0.6092    1.3547 H   0  0  0  0  0  0  0  0  0  0  0  0
   -0.1512   -0.7595   -1.3276 H   0  0  0  0  0  0  0  0  0  0  0  0
   -1.4754   -0.0437   -0.4337 H   0  0  0  0  0  0  0  0  0  0  0  0
   -0.9858   -1.5569    1.5163 H   0  0  0  0  0  0  0  0  0  0  0  0
   -1.2972   -2.4892    0.0501 H   0  0  0  0  0  0  0  0  0  0  0  0
    0.3596   -2.2665    0.6194 H   0  0  0  0  0  0  0  0  0  0  0  0
  1  3  1  0
  2  3  1  0
  2  6  1  0
  2  7  1  0
  2  8  1  0
  3  4  1  0
  3  9  1  0
  4  5  1  0
  4 10  1  0
  4 11  1  0
  5 12  1  0
  5 13  1  0
  5 14  1  0
M  END
>  <reaction>  (2) 
rmg_rxn_13983

>  <type>  (2) 
r2h

>  <mol_properties>  (2) 
{"0": {"label": "a_hydrogen", "atom_type": "H0"}, "2": {"label": "acceptor", "atom_type": "Cs"}}

>  <electro_map>  (2) 
{"0": {"R": null, "A": null, "D": null}, "2": {"R": 1.0914734717975314, "A": null, "D": null}, "3": {"R": 1.5052549185578266, "A": 102.84112831851836, "D": null}, "1": {"R": 2.5595571786135274, "A": 51.96940893834788, "D": 37.585454785569965}, "4": {"R": 3.9068456577095625, "A": 12.883215353173835, "D": 356.70262339209694}, "5": {"R": 4.266006173230877, "A": 14.566523022715396, "D": 296.54875662618093}, "6": {"R": 1.7648566270470762, "A": 76.84726515610929, "D": 36.015163554412744}, "7": {"R": 1.7671301173869804, "A": 59.97545254590873, "D": 259.17285729834674}, "8": {"R": 2.499350177234307, "A": 90.84725520068442, "D": 70.20495039713143}, "9": {"R": 3.056555291590407, "A": 84.86701740387313, "D": 5.87027313786199}, "10": {"R": 1.7506451098898514, "A": 59.89460598234354, "D": 253.60037414688546}, "11": {"R": 2.5162377410908414, "A": 90.15420155799731, "D": 300.7855090436816}, "12": {"R": 1.765175348600462, "A": 68.8779222058307, "D": 302.82663535375434}, "13": {"R": 1.7659884728544755, "A": 60.00736459409922, "D": 102.60964878580364}}

$$$$

     RDKit          3D

 23 21  0  0  0  0  0  0  0  0999 V2000
    1.5225    0.1537    0.6724 C   0  0  0  0  0  0  0  0  0  0  0  0
    1.4437   -0.7536   -0.2230 C   0  0  0  0  0  0  0  0  0  0  0  0
    1.2409   -1.6638   -1.1513 C   0  0  0  0  0  0  0  0  0  0  0  0
    1.2830   -1.3925   -2.6256 C   0  0  0  0  0  0  0  0  0  0  0  0
    0.3875    0.7577    1.0041 H   0  0  0  0  0  0  0  0  0  0  0  0
    2.3807    0.5332    1.2067 H   0  0  0  0  0  0  0  0  0  0  0  0
    1.0425   -2.6830   -0.8326 H   0  0  0  0  0  0  0  0  0  0  0  0
    2.0562   -1.9928   -3.1119 H   0  0  0  0  0  0  0  0  0  0  0  0
    1.4869   -0.3415   -2.8264 H   0  0  0  0  0  0  0  0  0  0  0  0
    0.3303   -1.6550   -3.0936 H   0  0  0  0  0  0  0  0  0  0  0  0
   -0.6713    2.6621    0.4047 C   0  0  0  0  0  0  0  0  0  0  0  0
   -0.8109    1.3595    1.1428 C   0  0  0  0  0  3  0  0  0  0  0  0
   -1.7616    0.3512    0.5551 C   0  0  0  0  0  0  0  0  0  0  0  0
   -1.8854   -0.9197    1.3846 C   0  0  0  0  0  0  0  0  0  0  0  0
   -1.6097    3.2273    0.4228 H   0  0  0  0  0  0  0  0  0  0  0  0
   -0.4129    2.4875   -0.6426 H   0  0  0  0  0  0  0  0  0  0  0  0
    0.1036    3.2927    0.8432 H   0  0  0  0  0  0  0  0  0  0  0  0
   -0.9017    1.4687    2.2250 H   0  0  0  0  0  0  0  0  0  0  0  0
   -1.4254    0.1000   -0.4574 H   0  0  0  0  0  0  0  0  0  0  0  0
   -2.7495    0.8158    0.4366 H   0  0  0  0  0  0  0  0  0  0  0  0
   -2.2600   -0.6974    2.3865 H   0  0  0  0  0  0  0  0  0  0  0  0
   -2.5714   -1.6297    0.9203 H   0  0  0  0  0  0  0  0  0  0  0  0
   -0.9146   -1.4070    1.4897 H   0  0  0  0  0  0  0  0  0  0  0  0
  1  2  2  0
  1  5  1  0
  1  6  1  0
  2  3  2  0
  3  4  1  0
  3  7  1  0
  4  8  1  0
  4  9  1  0
  4 10  1  0
 11 12  1  0
 11 15  1  0
 11 16  1  0
 11 17  1  0
 12 13  1  0
 12 18  1  0
 13 14  1  0
 13 19  1  0
 13 20  1  0
 14 21  1  0
 14 22  1  0
 14 23  1  0
M  RAD  1  12   2
M  END
>  <reaction>  (3) 
rmg_rxn_13983

>  <type>  (3) 
ts

>  <mol_properties>  (3) 
{"0": {"label": "*1", "atom_type": "Cd"}, "1": {"label": "*0", "atom_type": "Cdd"}, "4": {"label": "*2", "atom_type": "H0"}, "11": {"label": "*3", "atom_type": "Cs"}, "12": {"label": "*4", "atom_type": "Cs"}}

$$$$
