
     RDKit          3D

 10  9  0  0  0  0  0  0  0  0999 V2000
    0.3335    1.3971    1.2254 C   0  0  0  0  0  0  0  0  0  0  0  0
    0.1828    0.3042    0.5875 C   0  0  0  0  0  0  0  0  0  0  0  0
   -0.1229   -0.7960   -0.0707 C   0  0  0  0  0  0  0  0  0  0  0  0
   -0.3138   -0.8649   -1.5556 C   0  0  0  0  0  0  0  0  0  0  0  0
   -0.5986    1.8640    1.5048 H   0  0  0  0  0  0  0  0  0  0  0  0
    1.2208    1.9280    1.5348 H   0  0  0  0  0  0  0  0  0  0  0  0
   -0.2404   -1.7147    0.4954 H   0  0  0  0  0  0  0  0  0  0  0  0
    0.3742   -1.5841   -2.0071 H   0  0  0  0  0  0  0  0  0  0  0  0
   -0.1477    0.1061   -2.0212 H   0  0  0  0  0  0  0  0  0  0  0  0
   -1.3282   -1.1951   -1.7969 H   0  0  0  0  0  0  0  0  0  0  0  0
  1  2  2  0
  1  5  1  0
  1  6  1  0
  2  3  2  0
  3  4  1  0
  3  7  1  0
  4  8  1  0
  4  9  1  0
  4 10  1  0
M  END
>  <reaction>  (1) 
rmg_rxn_14046

>  <type>  (1) 
r1h

>  <mol_properties>  (1) 
{"0": {"label": "donator", "atom_type": "Cd"}, "4": {"label": "d_hydrogen", "atom_type": "H0"}}

>  <electro_map>  (1) 
{"4": {"R": null, "A": null, "D": null}, "0": {"R": 1.0793214875934476, "A": null, "D": null}, "1": {"R": 1.2743652802115852, "A": 113.47847907888817, "D": null}, "2": {"R": 1.3179270395712335, "A": 143.2304064406331, "D": 181.07348966555438}, "3": {"R": 1.498729724253741, "A": 124.24543336420818, "D": 84.89403538836353}, "5": {"R": 4.439120789158288, "A": 40.29473481628107, "D": 11.526143419626562}, "6": {"R": 4.060199027233403, "A": 29.877071654619673, "D": 5.5847487616349065}, "7": {"R": 2.5802100795410885, "A": 96.72588631525832, "D": 21.76409335219762}, "8": {"R": 1.7690254482209258, "A": 89.18870029081789, "D": 318.8155944214791}, "9": {"R": 1.771095241551051, "A": 59.58114937109484, "D": 292.21142607707884}}

$$$$

     RDKit          3D

 12 11  0  0  0  0  0  0  0  0999 V2000
    0.8729    0.3832    1.4194 C   0  0  0  0  0  0  0  0  0  0  0  0
   -0.2600   -0.6533    0.5828 S   0  0  0  0  0  0  0  0  0  0  0  0
    0.0701   -0.2032   -1.1401 C   0  0  0  0  0  0  0  0  0  0  0  0
   -0.4756    1.1528   -1.5563 C   0  0  0  0  0  0  0  0  0  0  0  0
    0.7523    0.2966    2.4962 H   0  0  0  0  0  0  0  0  0  0  0  0
    0.8988    1.4179    1.0830 H   0  0  0  0  0  0  0  0  0  0  0  0
   -0.3880   -1.0000   -1.7277 H   0  0  0  0  0  0  0  0  0  0  0  0
    1.1483   -0.2651   -1.2945 H   0  0  0  0  0  0  0  0  0  0  0  0
   -0.0273    1.9595   -0.9749 H   0  0  0  0  0  0  0  0  0  0  0  0
   -0.2525    1.3410   -2.6089 H   0  0  0  0  0  0  0  0  0  0  0  0
   -1.5564    1.1982   -1.4198 H   0  0  0  0  0  0  0  0  0  0  0  0
    1.8693   -0.0004    1.2124 H   0  0  0  0  0  0  0  0  0  0  0  0
  1  2  1  0
  1  5  1  0
  1  6  1  0
  1 12  1  0
  2  3  1  0
  3  4  1  0
  3  7  1  0
  3  8  1  0
  4  9  1  0
  4 10  1  0
  4 11  1  0
M  END
>  <reaction>  (2) 
rmg_rxn_14046

>  <type>  (2) 
r2h

>  <mol_properties>  (2) 
{"0": {"label": "acceptor", "atom_type": "Cs"}, "11": {"label": "a_hydrogen", "atom_type": "H0"}}

>  <electro_map>  (2) 
{"11": {"R": null, "A": null, "D": null}, "0": {"R": 1.0876034917586668, "A": null, "D": null}, "1": {"R": 1.7486794802862444, "A": 107.0598486720832, "D": null}, "2": {"R": 1.8110687919202249, "A": 91.20219005779342, "D": 112.37244781572213}, "3": {"R": 1.5198455720806052, "A": 114.63565824407121, "D": 285.88597393040874}, "4": {"R": 4.320203672835376, "A": 57.60103919790073, "D": 29.72871330425014}, "5": {"R": 1.809897428735995, "A": 33.673485574118246, "D": 128.53191904401737}, "6": {"R": 3.9245237851238004, "A": 98.68469872997233, "D": 340.686109839742}, "7": {"R": 1.7572577385226613, "A": 43.87584562412478, "D": 248.9451720066315}, "8": {"R": 2.5364073970831797, "A": 89.57542493004247, "D": 314.2904632880969}, "9": {"R": 1.761612104414845, "A": 68.55597638946946, "D": 301.7641010729484}, "10": {"R": 1.7704551592160356, "A": 59.9649255693825, "D": 102.3475353070394}}

$$$$

     RDKit          3D

 21 19  0  0  0  0  0  0  0  0999 V2000
   -0.2361    1.1884    1.5390 C   0  0  0  0  0  3  0  0  0  0  0  0
   -1.3689    0.1518    0.7024 S   0  0  0  0  0  0  0  0  0  0  0  0
   -1.0388    0.6019   -1.0205 C   0  0  0  0  0  0  0  0  0  0  0  0
   -1.5846    1.9580   -1.4368 C   0  0  0  0  0  0  0  0  0  0  0  0
   -0.3566    1.1017    2.6158 H   0  0  0  0  0  0  0  0  0  0  0  0
   -0.2102    2.2230    1.2026 H   0  0  0  0  0  0  0  0  0  0  0  0
   -1.4969   -0.1948   -1.6081 H   0  0  0  0  0  0  0  0  0  0  0  0
    0.0394    0.5400   -1.1749 H   0  0  0  0  0  0  0  0  0  0  0  0
   -1.1363    2.7646   -0.8553 H   0  0  0  0  0  0  0  0  0  0  0  0
   -1.3615    2.1461   -2.4893 H   0  0  0  0  0  0  0  0  0  0  0  0
   -2.6654    2.0034   -1.3002 H   0  0  0  0  0  0  0  0  0  0  0  0
    2.1593    0.1316    0.9346 C   0  0  0  0  0  0  0  0  0  0  0  0
    2.0086   -0.9613    0.2968 C   0  0  0  0  0  0  0  0  0  0  0  0
    1.7029   -2.0614   -0.3614 C   0  0  0  0  0  0  0  0  0  0  0  0
    1.5119   -2.1303   -1.8463 C   0  0  0  0  0  0  0  0  0  0  0  0
    0.9986    0.7130    1.2825 H   0  0  0  0  0  0  0  0  0  0  0  0
    3.0466    0.6626    1.2440 H   0  0  0  0  0  0  0  0  0  0  0  0
    1.5854   -2.9802    0.2047 H   0  0  0  0  0  0  0  0  0  0  0  0
    2.2000   -2.8496   -2.2978 H   0  0  0  0  0  0  0  0  0  0  0  0
    1.6780   -1.1594   -2.3120 H   0  0  0  0  0  0  0  0  0  0  0  0
    0.4976   -2.4605   -2.0877 H   0  0  0  0  0  0  0  0  0  0  0  0
  1  2  1  0
  1  5  1  0
  1  6  1  0
  2  3  1  0
  3  4  1  0
  3  7  1  0
  3  8  1  0
  4  9  1  0
  4 10  1  0
  4 11  1  0
 12 13  2  0
 12 16  1  0
 12 17  1  0
 13 14  2  0
 14 15  1  0
 14 18  1  0
 15 19  1  0
 15 20  1  0
 15 21  1  0
M  RAD  1   1   2
M  END
>  <reaction>  (3) 
rmg_rxn_14046

>  <type>  (3) 
ts

>  <mol_properties>  (3) 
{"0": {"label": "*3", "atom_type": "Cs"}, "1": {"label": "*4", "atom_type": "S2s"}, "11": {"label": "*1", "atom_type": "Cd"}, "12": {"label": "*0", "atom_type": "Cdd"}, "15": {"label": "*2", "atom_type": "H0"}}

$$$$
