
     RDKit          3D

 10  9  0  0  0  0  0  0  0  0999 V2000
   -0.7950   -1.5040   -0.8256 C   0  0  0  0  0  0  0  0  0  0  0  0
   -0.2411   -0.3995   -0.4973 C   0  0  0  0  0  0  0  0  0  0  0  0
    0.2259    0.7673   -0.1127 C   0  0  0  0  0  0  0  0  0  0  0  0
    0.7669    1.0529    1.2562 C   0  0  0  0  0  0  0  0  0  0  0  0
   -1.8524   -1.5880   -0.6215 H   0  0  0  0  0  0  0  0  0  0  0  0
   -0.3683   -2.3880   -1.2763 H   0  0  0  0  0  0  0  0  0  0  0  0
    0.2352    1.5774   -0.8361 H   0  0  0  0  0  0  0  0  0  0  0  0
    0.7126    0.1713    1.8935 H   0  0  0  0  0  0  0  0  0  0  0  0
    0.2025    1.8594    1.7317 H   0  0  0  0  0  0  0  0  0  0  0  0
    1.8091    1.3773    1.2028 H   0  0  0  0  0  0  0  0  0  0  0  0
  1  2  2  0
  1  5  1  0
  1  6  1  0
  2  3  2  0
  3  4  1  0
  3  7  1  0
  4  8  1  0
  4  9  1  0
  4 10  1  0
M  END
>  <reaction>  (1) 
rmg_rxn_13995

>  <type>  (1) 
r1h

>  <mol_properties>  (1) 
{"0": {"label": "donator", "atom_type": "Cd"}, "4": {"label": "d_hydrogen", "atom_type": "H0"}}

>  <electro_map>  (1) 
{"4": {"R": null, "A": null, "D": null}, "0": {"R": 1.0801223276761043, "A": null, "D": null}, "1": {"R": 1.278516178847769, "A": 116.28127081711499, "D": null}, "2": {"R": 1.3142653355218024, "A": 146.04610049577107, "D": 180.78649365387187}, "3": {"R": 1.4994031990455754, "A": 124.3665301874899, "D": 84.60626682529215}, "5": {"R": 4.420650460897867, "A": 40.185976396966026, "D": 13.155292365744138}, "6": {"R": 4.0351813021064045, "A": 30.02278528018147, "D": 6.651185307715076}, "7": {"R": 3.1073124624731445, "A": 70.98066063448242, "D": 357.5919474023169}, "8": {"R": 1.7708344702623495, "A": 56.230712554851294, "D": 206.61913325542804}, "9": {"R": 1.7587290768981798, "A": 60.204118101169584, "D": 292.4943327379584}}

$$$$

     RDKit          3D

 15 14  0  0  0  0  0  0  0  0999 V2000
    2.5889   -1.4493   -0.6802 H   0  0  0  0  0  0  0  0  0  0  0  0
    1.5360   -1.4250   -0.4087 C   0  0  0  0  0  0  0  0  0  0  0  0
    1.3818   -0.1029    0.2716 C   0  0  0  0  0  0  0  0  0  0  0  0
   -0.2594    0.1699    1.0134 S   0  0  0  0  0  0  0  0  0  0  0  0
   -1.3438    0.0686   -0.4330 C   0  0  0  0  0  0  0  0  0  0  0  0
   -1.0766    1.1083   -1.5086 C   0  0  0  0  0  0  0  0  0  0  0  0
    1.4066   -2.2943    0.2317 H   0  0  0  0  0  0  0  0  0  0  0  0
    1.0319   -1.5270   -1.3673 H   0  0  0  0  0  0  0  0  0  0  0  0
    1.6169    0.7193   -0.4049 H   0  0  0  0  0  0  0  0  0  0  0  0
    2.0668   -0.0240    1.1179 H   0  0  0  0  0  0  0  0  0  0  0  0
   -1.3002   -0.9406   -0.8457 H   0  0  0  0  0  0  0  0  0  0  0  0
   -2.3445    0.1974   -0.0172 H   0  0  0  0  0  0  0  0  0  0  0  0
   -1.8208    1.0292   -2.3042 H   0  0  0  0  0  0  0  0  0  0  0  0
   -1.1179    2.1164   -1.0948 H   0  0  0  0  0  0  0  0  0  0  0  0
   -0.0946    0.9690   -1.9636 H   0  0  0  0  0  0  0  0  0  0  0  0
  1  2  1  0
  2  3  1  0
  2  7  1  0
  2  8  1  0
  3  4  1  0
  3  9  1  0
  3 10  1  0
  4  5  1  0
  5  6  1  0
  5 11  1  0
  5 12  1  0
  6 13  1  0
  6 14  1  0
  6 15  1  0
M  END
>  <reaction>  (2) 
rmg_rxn_13995

>  <type>  (2) 
r2h

>  <mol_properties>  (2) 
{"0": {"label": "a_hydrogen", "atom_type": "H0"}, "1": {"label": "acceptor", "atom_type": "Cs"}}

>  <electro_map>  (2) 
{"0": {"R": null, "A": null, "D": null}, "1": {"R": 1.0876273858890684, "A": null, "D": null}, "2": {"R": 1.4947616981754233, "A": 103.48633178064581, "D": null}, "3": {"R": 1.8216331831823456, "A": 145.1441711537661, "D": 9.931918203395366}, "4": {"R": 1.810663674217714, "A": 101.88006906940466, "D": 299.24250740078907}, "5": {"R": 1.5196324488815063, "A": 114.95023013318287, "D": 299.0641733645088}, "6": {"R": 4.557634868959434, "A": 46.74512968726874, "D": 62.930713549945246}, "7": {"R": 1.812661920089278, "A": 40.05449307766827, "D": 138.8849937010837}, "8": {"R": 2.512810690729377, "A": 89.56496862252907, "D": 51.555887056386}, "9": {"R": 1.7532630199697943, "A": 90.76794342163673, "D": 2.943904554314628}, "10": {"R": 4.004069165892855, "A": 56.997623764629246, "D": 313.8472111876716}, "11": {"R": 1.7526996769795806, "A": 96.92538264982885, "D": 266.68646944739385}, "12": {"R": 2.4893437247642587, "A": 69.95863989997918, "D": 104.81508133931723}, "13": {"R": 1.7716346348940784, "A": 70.20471786254095, "D": 245.34680980711957}, "14": {"R": 1.7659325795939624, "A": 59.690203134135736, "D": 103.23088025923717}}

$$$$

     RDKit          3D

 24 22  0  0  0  0  0  0  0  0999 V2000
    2.3312   -1.3068   -0.8958 C   0  0  0  0  0  0  0  0  0  0  0  0
    2.8851   -0.2023   -0.5675 C   0  0  0  0  0  0  0  0  0  0  0  0
    3.3521    0.9645   -0.1829 C   0  0  0  0  0  0  0  0  0  0  0  0
    3.8931    1.2501    1.1860 C   0  0  0  0  0  0  0  0  0  0  0  0
    1.0525   -1.4084   -0.6490 H   0  0  0  0  0  0  0  0  0  0  0  0
    2.7579   -2.1908   -1.3465 H   0  0  0  0  0  0  0  0  0  0  0  0
    3.3614    1.7746   -0.9063 H   0  0  0  0  0  0  0  0  0  0  0  0
    3.8388    0.3685    1.8233 H   0  0  0  0  0  0  0  0  0  0  0  0
    3.3288    2.0566    1.6615 H   0  0  0  0  0  0  0  0  0  0  0  0
    4.9353    1.5745    1.1326 H   0  0  0  0  0  0  0  0  0  0  0  0
   -0.2745   -1.3778   -0.3068 C   0  0  0  0  0  3  0  0  0  0  0  0
   -0.4287   -0.0557    0.3735 C   0  0  0  0  0  0  0  0  0  0  0  0
   -2.0699    0.2172    1.1153 S   0  0  0  0  0  0  0  0  0  0  0  0
   -3.1543    0.1158   -0.3311 C   0  0  0  0  0  0  0  0  0  0  0  0
   -2.8871    1.1555   -1.4067 C   0  0  0  0  0  0  0  0  0  0  0  0
   -0.4039   -2.2470    0.3336 H   0  0  0  0  0  0  0  0  0  0  0  0
   -0.7786   -1.4798   -1.2654 H   0  0  0  0  0  0  0  0  0  0  0  0
   -0.1936    0.7665   -0.3030 H   0  0  0  0  0  0  0  0  0  0  0  0
    0.2563    0.0232    1.2198 H   0  0  0  0  0  0  0  0  0  0  0  0
   -3.1107   -0.8934   -0.7438 H   0  0  0  0  0  0  0  0  0  0  0  0
   -4.1550    0.2446    0.0847 H   0  0  0  0  0  0  0  0  0  0  0  0
   -3.6312    1.0764   -2.2023 H   0  0  0  0  0  0  0  0  0  0  0  0
   -2.9284    2.1636   -0.9929 H   0  0  0  0  0  0  0  0  0  0  0  0
   -1.9050    1.0163   -1.8617 H   0  0  0  0  0  0  0  0  0  0  0  0
  1  2  2  0
  1  5  1  0
  1  6  1  0
  2  3  2  0
  3  4  1  0
  3  7  1  0
  4  8  1  0
  4  9  1  0
  4 10  1  0
 11 12  1  0
 11 16  1  0
 11 17  1  0
 12 13  1  0
 12 18  1  0
 12 19  1  0
 13 14  1  0
 14 15  1  0
 14 20  1  0
 14 21  1  0
 15 22  1  0
 15 23  1  0
 15 24  1  0
M  RAD  1  11   2
M  END
>  <reaction>  (3) 
rmg_rxn_13995

>  <type>  (3) 
ts

>  <mol_properties>  (3) 
{"0": {"label": "*1", "atom_type": "Cd"}, "1": {"label": "*0", "atom_type": "Cdd"}, "4": {"label": "*2", "atom_type": "H0"}, "10": {"label": "*3", "atom_type": "Cs"}, "11": {"label": "*4", "atom_type": "Cs"}}

$$$$
