
     RDKit          3D

 10  9  0  0  0  0  0  0  0  0999 V2000
   -1.3369    0.2888   -1.3036 C   0  0  0  0  0  0  0  0  0  0  0  0
   -0.4242    0.3453   -0.4164 C   0  0  0  0  0  0  0  0  0  0  0  0
    0.4105    0.3434    0.6066 C   0  0  0  0  0  0  0  0  0  0  0  0
    1.2575   -0.8309    1.0009 C   0  0  0  0  0  0  0  0  0  0  0  0
   -2.2873   -0.0278   -0.9035 H   0  0  0  0  0  0  0  0  0  0  0  0
   -1.3281    0.5000   -2.3613 H   0  0  0  0  0  0  0  0  0  0  0  0
    0.5284    1.2634    1.1719 H   0  0  0  0  0  0  0  0  0  0  0  0
    1.0408   -1.6985    0.3785 H   0  0  0  0  0  0  0  0  0  0  0  0
    1.0860   -1.1029    2.0458 H   0  0  0  0  0  0  0  0  0  0  0  0
    2.3205   -0.5960    0.9024 H   0  0  0  0  0  0  0  0  0  0  0  0
  1  2  2  0
  1  5  1  0
  1  6  1  0
  2  3  2  0
  3  4  1  0
  3  7  1  0
  4  8  1  0
  4  9  1  0
  4 10  1  0
M  END
>  <reaction>  (1) 
rmg_rxn_14026

>  <type>  (1) 
r1h

>  <mol_properties>  (1) 
{"0": {"label": "donator", "atom_type": "Cd"}, "4": {"label": "d_hydrogen", "atom_type": "H0"}}

>  <electro_map>  (1) 
{"4": {"R": null, "A": null, "D": null}, "0": {"R": 1.078653068033169, "A": null, "D": null}, "1": {"R": 1.274093178292481, "A": 112.69563368626854, "D": null}, "2": {"R": 1.320350691564635, "A": 142.43153305356464, "D": 180.835037913107}, "3": {"R": 1.500593544830141, "A": 124.15877059548636, "D": 87.41346654882773}, "5": {"R": 4.445298126143831, "A": 40.42086994436968, "D": 10.99791295395309}, "6": {"R": 4.06363603406885, "A": 29.875065061275976, "D": 6.600172285651341}, "7": {"R": 3.108790970590999, "A": 70.99822165724353, "D": 357.14084254631723}, "8": {"R": 1.7710991454242089, "A": 56.187965900788654, "D": 204.96674806731795}, "9": {"R": 1.7573855411379729, "A": 60.160751545065466, "D": 291.98873807259}}

$$$$

     RDKit          3D

 12 11  0  0  0  0  0  0  0  0999 V2000
   -0.1050   -1.4792   -1.2753 C   0  0  0  0  0  0  0  0  0  0  0  0
    0.1258   -0.7819    0.0577 C   0  0  0  0  0  0  0  0  0  0  0  0
   -0.1601    0.6959   -0.0128 C   0  0  0  0  0  0  0  0  0  0  0  0
    0.0581    1.4109    1.1438 O   0  0  0  0  0  0  0  0  0  0  0  0
    0.5483   -1.0681   -2.0473 H   0  0  0  0  0  0  0  0  0  0  0  0
    0.0972   -2.5477   -1.1990 H   0  0  0  0  0  0  0  0  0  0  0  0
   -1.1380   -1.3578   -1.6085 H   0  0  0  0  0  0  0  0  0  0  0  0
   -0.5012   -1.2267    0.8383 H   0  0  0  0  0  0  0  0  0  0  0  0
    1.1666   -0.9192    0.3731 H   0  0  0  0  0  0  0  0  0  0  0  0
   -1.1387    0.9580   -0.4151 H   0  0  0  0  0  0  0  0  0  0  0  0
    0.9631    1.2560    1.4347 H   0  0  0  0  0  0  0  0  0  0  0  0
    0.5779    1.0681   -0.7234 H   0  0  0  0  0  0  0  0  0  0  0  0
  1  2  1  0
  1  5  1  0
  1  6  1  0
  1  7  1  0
  2  3  1  0
  2  8  1  0
  2  9  1  0
  3  4  1  0
  3 10  1  0
  3 12  1  0
  4 11  1  0
M  END
>  <reaction>  (2) 
rmg_rxn_14026

>  <type>  (2) 
r2h

>  <mol_properties>  (2) 
{"2": {"label": "acceptor", "atom_type": "Cs"}, "11": {"label": "a_hydrogen", "atom_type": "H0"}}

>  <electro_map>  (2) 
{"11": {"R": null, "A": null, "D": null}, "2": {"R": 1.0900241606773176, "A": null, "D": null}, "3": {"R": 1.3771808408918533, "A": 105.24420594740738, "D": null}, "1": {"R": 2.447937747512841, "A": 54.25414977847877, "D": 38.47850994745571}, "0": {"R": 1.5219799405053067, "A": 142.63713820727693, "D": 2.54340636309262}, "10": {"R": 3.9957765693862384, "A": 18.53008515986224, "D": 37.46118957424211}, "4": {"R": 4.206833802019921, "A": 15.011385898297917, "D": 159.67031506703555}, "5": {"R": 1.764202659046369, "A": 95.19631192635686, "D": 332.5324548044712}, "6": {"R": 1.7633627518193142, "A": 60.09962156240769, "D": 85.59086340639311}, "7": {"R": 2.531707063075971, "A": 68.5484390301976, "D": 257.49699858683664}, "8": {"R": 1.7585644279350376, "A": 89.5387060893825, "D": 58.38538808913899}, "9": {"R": 3.075689756366365, "A": 57.56636399137844, "D": 61.01700003290616}}

$$$$

     RDKit          3D

 21 19  0  0  0  0  0  0  0  0999 V2000
   -1.5547   -2.1023   -1.1858 C   0  0  0  0  0  0  0  0  0  0  0  0
   -1.3239   -1.4049    0.1472 C   0  0  0  0  0  0  0  0  0  0  0  0
   -1.6098    0.0728    0.0767 C   0  0  0  0  0  0  0  0  0  0  0  0
   -1.3916    0.7878    1.2333 O   0  0  0  0  0  0  0  0  0  0  0  0
   -0.9013   -1.6912   -1.9578 H   0  0  0  0  0  0  0  0  0  0  0  0
   -1.3524   -3.1708   -1.1095 H   0  0  0  0  0  0  0  0  0  0  0  0
   -2.5877   -1.9809   -1.5190 H   0  0  0  0  0  0  0  0  0  0  0  0
   -1.9508   -1.8498    0.9278 H   0  0  0  0  0  0  0  0  0  0  0  0
   -0.2830   -1.5423    0.4626 H   0  0  0  0  0  0  0  0  0  0  0  0
   -2.5884    0.3349   -0.3257 H   0  0  0  0  0  0  0  0  0  0  0  0
   -0.4865    0.6330    1.5241 H   0  0  0  0  0  0  0  0  0  0  0  0
    0.4929    0.9275   -1.2965 C   0  0  0  0  0  0  0  0  0  0  0  0
    1.4056    0.9840   -0.4093 C   0  0  0  0  0  0  0  0  0  0  0  0
    2.2403    0.9822    0.6137 C   0  0  0  0  0  3  0  0  0  0  0  0
    3.0873   -0.1921    1.0079 C   0  0  0  0  0  0  0  0  0  0  0  0
   -0.7092    0.5270   -0.7904 H   0  0  0  0  0  0  0  0  0  0  0  0
    0.5018    1.1387   -2.3543 H   0  0  0  0  0  0  0  0  0  0  0  0
    2.3582    1.9021    1.1790 H   0  0  0  0  0  0  0  0  0  0  0  0
    2.8706   -1.0597    0.3855 H   0  0  0  0  0  0  0  0  0  0  0  0
    2.9158   -0.4641    2.0528 H   0  0  0  0  0  0  0  0  0  0  0  0
    4.1504    0.0428    0.9095 H   0  0  0  0  0  0  0  0  0  0  0  0
  1  2  1  0
  1  5  1  0
  1  6  1  0
  1  7  1  0
  2  3  1  0
  2  8  1  0
  2  9  1  0
  3  4  1  0
  3 10  1  0
  3 16  1  0
  4 11  1  0
 12 13  3  0
 12 17  1  0
 13 14  1  0
 14 15  1  0
 14 18  1  0
 15 19  1  0
 15 20  1  0
 15 21  1  0
M  RAD  1  14   2
M  END
>  <reaction>  (3) 
rmg_rxn_14026

>  <type>  (3) 
ts

>  <mol_properties>  (3) 
{"1": {"label": "*0", "atom_type": "Cs"}, "2": {"label": "*1", "atom_type": "Cs"}, "11": {"label": "*3", "atom_type": "Ct"}, "12": {"label": "*4", "atom_type": "Ct"}, "15": {"label": "*2", "atom_type": "H0"}}

$$$$
