
     RDKit          3D

  9  9  0  0  0  0  0  0  0  0999 V2000
    0.7979   -1.0567    0.2994 O   0  0  0  0  0  0  0  0  0  0  0  0
    0.4442    0.2253    0.0867 N   0  0  0  0  0  0  0  0  0  0  0  0
   -0.8927    0.5902    0.4988 C   0  0  0  0  0  0  0  0  0  0  0  0
   -0.5374    0.4477   -0.9512 C   0  0  0  0  0  0  0  0  0  0  0  0
   -1.4888   -0.2022    0.9339 H   0  0  0  0  0  0  0  0  0  0  0  0
   -1.0012    1.5716    0.9433 H   0  0  0  0  0  0  0  0  0  0  0  0
   -0.3859    1.3248   -1.5679 H   0  0  0  0  0  0  0  0  0  0  0  0
   -0.9030   -0.4372   -1.4571 H   0  0  0  0  0  0  0  0  0  0  0  0
    1.7297   -0.9934    0.5215 H   0  0  0  0  0  0  0  0  0  0  0  0
  1  2  1  0
  1  9  1  0
  2  3  1  0
  2  4  1  0
  3  4  1  0
  3  5  1  0
  3  6  1  0
  4  7  1  0
  4  8  1  0
M  END
>  <reaction>  (1) 
rmg_rxn_13938

>  <type>  (1) 
r1h

>  <mol_properties>  (1) 
{"0": {"label": "donator", "atom_type": "O2s"}, "8": {"label": "d_hydrogen", "atom_type": "H0"}}

>  <electro_map>  (1) 
{"8": {"R": null, "A": null, "D": null}, "0": {"R": 0.9599999607106042, "A": null, "D": null}, "1": {"R": 1.3468109133314208, "A": 103.2248902786997, "D": null}, "2": {"R": 1.4457297882614524, "A": 138.79848994849152, "D": 51.94339676758695}, "3": {"R": 1.4997083062431498, "A": 58.757047581215836, "D": 252.80315581782267}, "4": {"R": 2.2093974974267856, "A": 25.968650325470485, "D": 105.63158650893546}, "5": {"R": 1.8396454398476263, "A": 66.83183008680429, "D": 15.72804543385002}, "6": {"R": 2.597246685581514, "A": 88.06384860652793, "D": 6.820769109462302}, "7": {"R": 1.8396454398476263, "A": 88.06384860652793, "D": 359.9999732317793}}

$$$$

     RDKit          3D

 10  9  0  0  0  0  0  0  0  0999 V2000
    0.5272   -1.8145    0.3075 C   0  0  0  0  0  0  0  0  0  0  0  0
   -0.1447    1.9630   -0.2284 C   0  0  0  0  0  0  0  0  0  0  0  0
   -0.2777   -0.6087   -0.0082 C   0  0  0  0  0  0  0  0  0  0  0  0
   -0.1363    0.6462   -0.0969 C   0  0  0  0  0  0  0  0  0  0  0  0
    0.5238   -2.5079   -0.5351 H   0  0  0  0  0  0  0  0  0  0  0  0
    0.1069   -2.3407    1.1662 H   0  0  0  0  0  0  0  0  0  0  0  0
    1.5605   -1.5477    0.5345 H   0  0  0  0  0  0  0  0  0  0  0  0
    0.0822    2.4305   -1.1788 H   0  0  0  0  0  0  0  0  0  0  0  0
   -0.3576    2.6069    0.6162 H   0  0  0  0  0  0  0  0  0  0  0  0
   -1.3221   -0.8131   -0.2440 H   0  0  0  0  0  0  0  0  0  0  0  0
  1  3  1  0
  1  5  1  0
  1  6  1  0
  1  7  1  0
  2  4  2  0
  2  8  1  0
  2  9  1  0
  3  4  2  0
  3 10  1  0
M  END
>  <reaction>  (2) 
rmg_rxn_13938

>  <type>  (2) 
r2h

>  <mol_properties>  (2) 
{"2": {"label": "acceptor", "atom_type": "Cd"}, "9": {"label": "a_hydrogen", "atom_type": "H0"}}

>  <electro_map>  (2) 
{"9": {"R": null, "A": null, "D": null}, "2": {"R": 1.0899999909882152, "A": null, "D": null}, "3": {"R": 1.2660288696161226, "A": 106.12402237852707, "D": null}, "1": {"R": 1.3233327236382324, "A": 139.30019322148678, "D": 180.0000433747263}, "0": {"R": 3.8740046053314012, "A": 9.907840731320066, "D": 179.99969260947253}, "4": {"R": 1.0912683944637511, "A": 120.81452581732418, "D": 69.84108975026349}, "5": {"R": 1.7595827809985654, "A": 36.27273548605953, "D": 215.62842925678754}, "6": {"R": 1.7722521614301525, "A": 60.23622576115212, "D": 323.3200262647896}, "7": {"R": 4.5767347288430695, "A": 104.91822378222689, "D": 84.86863137767601}, "8": {"R": 1.8564682366622818, "A": 78.2980539043431, "D": 62.00164587903816}}

$$$$

     RDKit          3D

 18 17  0  0  0  0  0  0  0  0999 V2000
   -0.9521   -1.0135   -0.1337 O   0  0  0  0  0  0  0  0  0  0  0  0
   -1.3059    0.2685   -0.3463 N   0  0  0  0  0  0  0  0  0  0  0  0
   -2.6427    0.6334    0.0658 C   0  0  0  0  0  0  0  0  0  0  0  0
   -2.2874    0.4909   -1.3843 C   0  0  0  0  0  0  0  0  0  0  0  0
    2.2896   -1.8924    0.7470 C   0  0  0  0  0  0  0  0  0  0  0  0
    1.6177    1.8850    0.2111 C   0  0  0  0  0  0  0  0  0  0  0  0
    1.4847   -0.6867    0.4313 C   0  0  0  0  0  3  0  0  0  0  0  0
    1.6261    0.5683    0.3426 C   0  0  0  0  0  0  0  0  0  0  0  0
   -3.2389   -0.1591    0.5009 H   0  0  0  0  0  0  0  0  0  0  0  0
   -2.7513    1.6147    0.5103 H   0  0  0  0  0  0  0  0  0  0  0  0
   -2.1360    1.3679   -2.0009 H   0  0  0  0  0  0  0  0  0  0  0  0
   -2.6530   -0.3941   -1.8901 H   0  0  0  0  0  0  0  0  0  0  0  0
    2.2862   -2.5859   -0.0956 H   0  0  0  0  0  0  0  0  0  0  0  0
    1.8693   -2.4187    1.6057 H   0  0  0  0  0  0  0  0  0  0  0  0
    3.3229   -1.6257    0.9740 H   0  0  0  0  0  0  0  0  0  0  0  0
    1.8446    2.3525   -0.7393 H   0  0  0  0  0  0  0  0  0  0  0  0
    1.4048    2.5289    1.0557 H   0  0  0  0  0  0  0  0  0  0  0  0
    0.2214   -0.9339    0.1460 H   0  0  0  0  0  0  0  0  0  0  0  0
  1  2  1  0
  1 18  1  0
  2  3  1  0
  2  4  1  0
  3  4  1  0
  3  9  1  0
  3 10  1  0
  4 11  1  0
  4 12  1  0
  5  7  1  0
  5 13  1  0
  5 14  1  0
  5 15  1  0
  6  8  2  0
  6 16  1  0
  6 17  1  0
  7  8  2  0
M  RAD  1   7   2
M  END
>  <reaction>  (3) 
rmg_rxn_13938

>  <type>  (3) 
ts

>  <mol_properties>  (3) 
{"0": {"label": "*1", "atom_type": "O2s"}, "1": {"label": "*0", "atom_type": "N3s"}, "6": {"label": "*3", "atom_type": "Cd"}, "7": {"label": "*4", "atom_type": "Cdd"}, "17": {"label": "*2", "atom_type": "H0"}}

$$$$
