
     RDKit          3D

 10  9  0  0  0  0  0  0  0  0999 V2000
   -0.6021    1.7597   -0.3174 C   0  0  0  0  0  0  0  0  0  0  0  0
   -0.0948    0.6681    0.1141 C   0  0  0  0  0  0  0  0  0  0  0  0
    0.3017   -0.5024    0.5624 C   0  0  0  0  0  0  0  0  0  0  0  0
    0.4063   -1.7348   -0.2862 C   0  0  0  0  0  0  0  0  0  0  0  0
   -1.6740    1.8581   -0.2291 H   0  0  0  0  0  0  0  0  0  0  0  0
   -0.1204    2.6168   -0.7645 H   0  0  0  0  0  0  0  0  0  0  0  0
    0.5835   -0.5845    1.6080 H   0  0  0  0  0  0  0  0  0  0  0  0
    1.4308   -2.1154   -0.2995 H   0  0  0  0  0  0  0  0  0  0  0  0
    0.1012   -1.5324   -1.3121 H   0  0  0  0  0  0  0  0  0  0  0  0
   -0.2293   -2.5311    0.1103 H   0  0  0  0  0  0  0  0  0  0  0  0
  1  2  2  0
  1  5  1  0
  1  6  1  0
  2  3  2  0
  3  4  1  0
  3  7  1  0
  4  8  1  0
  4  9  1  0
  4 10  1  0
M  END
>  <reaction>  (1) 
rmg_rxn_13984

>  <type>  (1) 
r1h

>  <mol_properties>  (1) 
{"0": {"label": "donator", "atom_type": "Cd"}, "4": {"label": "d_hydrogen", "atom_type": "H0"}}

>  <electro_map>  (1) 
{"4": {"R": null, "A": null, "D": null}, "0": {"R": 1.0800900450009057, "A": null, "D": null}, "1": {"R": 1.278702972233478, "A": 116.35689407027789, "D": null}, "2": {"R": 1.3146483685849504, "A": 145.44731571830548, "D": 182.27527635907174}, "3": {"R": 1.4999609783183232, "A": 124.03204299920787, "D": 77.25992469993501}, "5": {"R": 4.409401490302913, "A": 40.72748421894951, "D": 12.647804611455655}, "6": {"R": 4.046266252251135, "A": 30.09621494946538, "D": 6.313186664921741}, "7": {"R": 2.5884519033136044, "A": 95.32246469643086, "D": 22.109342836541824}, "8": {"R": 1.7700497034066325, "A": 88.9068805251737, "D": 316.73369852966204}, "9": {"R": 1.7691427650699825, "A": 59.630364963449864, "D": 292.4520580918783}}

$$$$

     RDKit          3D

 14 13  0  0  0  0  0  0  0  0999 V2000
    1.1782    1.9623   -0.2497 H   0  0  0  0  0  0  0  0  0  0  0  0
    0.1060    1.9335   -0.0646 C   0  0  0  0  0  0  0  0  0  0  0  0
   -0.1157    0.5610    0.5036 C   0  0  0  0  0  0  0  0  0  0  0  0
    0.0185   -0.5528   -0.5299 C   0  0  0  0  0  0  0  0  0  0  0  0
   -0.0564   -1.9399    0.0911 C   0  0  0  0  0  0  0  0  0  0  0  0
   -0.0367    2.7618    0.6258 H   0  0  0  0  0  0  0  0  0  0  0  0
   -0.3346    2.1201   -1.0429 H   0  0  0  0  0  0  0  0  0  0  0  0
   -1.1079    0.5054    0.9705 H   0  0  0  0  0  0  0  0  0  0  0  0
    0.6035    0.3890    1.3129 H   0  0  0  0  0  0  0  0  0  0  0  0
   -0.7659   -0.4391   -1.2847 H   0  0  0  0  0  0  0  0  0  0  0  0
    0.9707   -0.4379   -1.0540 H   0  0  0  0  0  0  0  0  0  0  0  0
    0.7434   -2.0763    0.8234 H   0  0  0  0  0  0  0  0  0  0  0  0
    0.0427   -2.7221   -0.6632 H   0  0  0  0  0  0  0  0  0  0  0  0
   -1.0071   -2.0915    0.6080 H   0  0  0  0  0  0  0  0  0  0  0  0
  1  2  1  0
  2  3  1  0
  2  6  1  0
  2  7  1  0
  3  4  1  0
  3  8  1  0
  3  9  1  0
  4  5  1  0
  4 10  1  0
  4 11  1  0
  5 12  1  0
  5 13  1  0
  5 14  1  0
M  END
>  <reaction>  (2) 
rmg_rxn_13984

>  <type>  (2) 
r2h

>  <mol_properties>  (2) 
{"0": {"label": "a_hydrogen", "atom_type": "H0"}, "1": {"label": "acceptor", "atom_type": "Cs"}}

>  <electro_map>  (2) 
{"0": {"R": null, "A": null, "D": null}, "1": {"R": 1.088383232645478, "A": null, "D": null}, "2": {"R": 1.5019783642933808, "A": 103.52783848128269, "D": null}, "3": {"R": 1.525392422449125, "A": 101.21847686743718, "D": 117.18807622367912}, "4": {"R": 1.5215562208496198, "A": 112.62604703312066, "D": 173.65438028663}, "5": {"R": 4.732050460365807, "A": 30.7037403219773, "D": 357.6309709575941}, "6": {"R": 1.8124985530452873, "A": 62.83673319225942, "D": 15.647451775775355}, "7": {"R": 2.6942631987168517, "A": 64.61928785128897, "D": 28.280922440549332}, "8": {"R": 1.749193823271758, "A": 84.56558433863242, "D": 293.4565369963147}, "9": {"R": 3.05099334174936, "A": 54.005258520652625, "D": 299.81009717270155}, "10": {"R": 1.7519144757790934, "A": 56.13292375904876, "D": 173.98191672543}, "11": {"R": 2.5021316976793484, "A": 90.47534877906389, "D": 59.95957407948797}, "12": {"R": 1.7657885180348138, "A": 69.13623499245648, "D": 57.53811071752809}, "13": {"R": 1.7651698783408512, "A": 59.934355709005224, "D": 256.9908789858681}}

$$$$

     RDKit          3D

 23 21  0  0  0  0  0  0  0  0999 V2000
    1.1059    1.8169   -0.3585 C   0  0  0  0  0  0  0  0  0  0  0  0
    1.6132    0.7253    0.0730 C   0  0  0  0  0  0  0  0  0  0  0  0
    2.0097   -0.4452    0.5213 C   0  0  0  0  0  0  0  0  0  0  0  0
    2.1143   -1.6776   -0.3272 C   0  0  0  0  0  0  0  0  0  0  0  0
   -0.1915    1.9361   -0.2516 H   0  0  0  0  0  0  0  0  0  0  0  0
    1.5876    2.6740   -0.8056 H   0  0  0  0  0  0  0  0  0  0  0  0
    2.2915   -0.5272    1.5669 H   0  0  0  0  0  0  0  0  0  0  0  0
    3.1388   -2.0581   -0.3406 H   0  0  0  0  0  0  0  0  0  0  0  0
    1.8092   -1.4752   -1.3532 H   0  0  0  0  0  0  0  0  0  0  0  0
    1.4787   -2.4738    0.0692 H   0  0  0  0  0  0  0  0  0  0  0  0
   -1.5435    1.8998   -0.0182 C   0  0  0  0  0  3  0  0  0  0  0  0
   -1.7652    0.5273    0.5500 C   0  0  0  0  0  0  0  0  0  0  0  0
   -1.6310   -0.5866   -0.4835 C   0  0  0  0  0  0  0  0  0  0  0  0
   -1.7059   -1.9736    0.1375 C   0  0  0  0  0  0  0  0  0  0  0  0
   -1.6862    2.7281    0.6722 H   0  0  0  0  0  0  0  0  0  0  0  0
   -1.9841    2.0863   -0.9965 H   0  0  0  0  0  0  0  0  0  0  0  0
   -2.7574    0.4717    1.0170 H   0  0  0  0  0  0  0  0  0  0  0  0
   -1.0460    0.3553    1.3593 H   0  0  0  0  0  0  0  0  0  0  0  0
   -2.4155   -0.4728   -1.2383 H   0  0  0  0  0  0  0  0  0  0  0  0
   -0.6788   -0.4716   -1.0076 H   0  0  0  0  0  0  0  0  0  0  0  0
   -0.9061   -2.1100    0.8698 H   0  0  0  0  0  0  0  0  0  0  0  0
   -1.6068   -2.7558   -0.6168 H   0  0  0  0  0  0  0  0  0  0  0  0
   -2.6566   -2.1252    0.6545 H   0  0  0  0  0  0  0  0  0  0  0  0
  1  2  2  0
  1  5  1  0
  1  6  1  0
  2  3  2  0
  3  4  1  0
  3  7  1  0
  4  8  1  0
  4  9  1  0
  4 10  1  0
 11 12  1  0
 11 15  1  0
 11 16  1  0
 12 13  1  0
 12 17  1  0
 12 18  1  0
 13 14  1  0
 13 19  1  0
 13 20  1  0
 14 21  1  0
 14 22  1  0
 14 23  1  0
M  RAD  1  11   2
M  END
>  <reaction>  (3) 
rmg_rxn_13984

>  <type>  (3) 
ts

>  <mol_properties>  (3) 
{"0": {"label": "*1", "atom_type": "Cd"}, "1": {"label": "*0", "atom_type": "Cdd"}, "4": {"label": "*2", "atom_type": "H0"}, "10": {"label": "*3", "atom_type": "Cs"}, "11": {"label": "*4", "atom_type": "Cs"}}

$$$$
