
     RDKit          3D

  4  3  0  0  0  0  0  0  0  0999 V2000
    0.8953    0.5731    0.1369 O   0  0  0  0  0  0  0  0  0  0  0  0
    0.0557   -0.3778    0.2702 N   0  0  0  0  0  0  0  0  0  0  0  0
   -0.9717   -0.3314   -0.3297 O   0  0  0  0  0  0  0  0  0  0  0  0
    0.5496    1.2098   -0.4930 H   0  0  0  0  0  0  0  0  0  0  0  0
  1  2  1  0
  1  4  1  0
  2  3  2  0
M  END
>  <reaction>  (1) 
rmg_rxn_14155

>  <type>  (1) 
r1h

>  <mol_properties>  (1) 
{"0": {"label": "donator", "atom_type": "O2s"}, "3": {"label": "d_hydrogen", "atom_type": "H0"}}

>  <electro_map>  (1) 
{"3": {"R": null, "A": null, "D": null}, "0": {"R": 0.9600000538428609, "A": null, "D": null}, "1": {"R": 1.2755162876723656, "A": 109.02367945946956, "D": null}, "2": {"R": 1.1906091243456425, "A": 89.36549621832943, "D": 178.4680656896279}}

$$$$

     RDKit          3D

 10  9  0  0  0  0  0  0  0  0999 V2000
   -0.4257   -0.4245    2.2533 H   0  0  0  0  0  0  0  0  0  0  0  0
    1.2670    0.0208   -1.4133 C   0  0  0  0  0  0  0  0  0  0  0  0
    0.2744   -0.1243   -0.5944 C   0  0  0  0  0  0  0  0  0  0  0  0
   -0.7359   -0.2600    0.2377 C   0  0  0  0  0  0  0  0  0  0  0  0
   -0.7765    0.3346    1.5593 C   0  0  0  0  0  0  0  0  0  0  0  0
    2.1052   -0.6676   -1.4034 H   0  0  0  0  0  0  0  0  0  0  0  0
    1.2882    0.8322   -2.1327 H   0  0  0  0  0  0  0  0  0  0  0  0
   -1.5673   -0.8902   -0.0625 H   0  0  0  0  0  0  0  0  0  0  0  0
   -1.7673    0.5330    1.9570 H   0  0  0  0  0  0  0  0  0  0  0  0
   -0.0524    1.1232    1.7500 H   0  0  0  0  0  0  0  0  0  0  0  0
  1  5  1  0
  2  3  2  0
  2  6  1  0
  2  7  1  0
  3  4  2  0
  4  5  1  0
  4  8  1  0
  5  9  1  0
  5 10  1  0
M  END
>  <reaction>  (2) 
rmg_rxn_14155

>  <type>  (2) 
r2h

>  <mol_properties>  (2) 
{"0": {"label": "a_hydrogen", "atom_type": "H0"}, "4": {"label": "acceptor", "atom_type": "Cs"}}

>  <electro_map>  (2) 
{"0": {"R": null, "A": null, "D": null}, "4": {"R": 1.0867126771824387, "A": null, "D": null}, "3": {"R": 1.4497470766667235, "A": 106.65924050220931, "D": null}, "2": {"R": 1.31591959937283, "A": 120.9848625081131, "D": 104.9393868646148}, "1": {"R": 1.0, "A": 90.0, "D": 180.0}, "5": {"R": 1.294921184556872, "A": 90.0, "D": 180.0}, "6": {"R": 1.0846648408791952, "A": 121.25108342162717, "D": 88.89288835773928}, "7": {"R": 1.8570001646913816, "A": 31.119182139069157, "D": 179.89208535590666}, "8": {"R": 3.925078888118569, "A": 76.02779370822695, "D": 345.515433657592}, "9": {"R": 2.4786529863680102, "A": 103.67670097471371, "D": 104.51541276766483}}

$$$$

     RDKit          3D

 13 11  0  0  0  0  0  0  0  0999 V2000
    0.4364   -0.4799    1.8706 O   0  0  0  0  0  0  0  0  0  0  0  0
   -0.4032   -1.4308    2.0039 N   0  0  0  0  0  0  0  0  0  0  0  0
   -1.4306   -1.3843    1.4040 O   0  0  0  0  0  0  0  0  0  0  0  0
   -0.0198    0.3602    1.0395 H   0  0  0  0  0  0  0  0  0  0  0  0
    1.5980    0.9675   -2.7753 C   0  0  0  0  0  0  0  0  0  0  0  0
    0.6054    0.8224   -1.9564 C   0  0  0  0  0  3  0  0  0  0  0  0
   -0.4050    0.6867   -1.1243 C   0  0  0  0  0  0  0  0  0  0  0  0
   -0.4455    1.2813    0.1973 C   0  0  0  0  0  0  0  0  0  0  0  0
    2.4362    0.2792   -2.7654 H   0  0  0  0  0  0  0  0  0  0  0  0
    1.6192    1.7789   -3.4947 H   0  0  0  0  0  0  0  0  0  0  0  0
   -1.2363    0.0566   -1.4245 H   0  0  0  0  0  0  0  0  0  0  0  0
   -1.4363    1.4798    0.5950 H   0  0  0  0  0  0  0  0  0  0  0  0
    0.2786    2.0700    0.3880 H   0  0  0  0  0  0  0  0  0  0  0  0
  1  2  1  0
  1  4  1  0
  2  3  2  0
  5  6  2  3
  5  9  1  0
  5 10  1  0
  6  7  1  0
  7  8  2  3
  7 11  1  0
  8 12  1  0
  8 13  1  0
M  RAD  1   6   2
M  END
>  <reaction>  (3) 
rmg_rxn_14155

>  <type>  (3) 
ts

>  <mol_properties>  (3) 
{"0": {"label": "*1", "atom_type": "O2s"}, "1": {"label": "*0", "atom_type": "N3d"}, "3": {"label": "*2", "atom_type": "H0"}, "6": {"label": "*4", "atom_type": "Cd"}, "7": {"label": "*3", "atom_type": "Cd"}}

$$$$
