
     RDKit          3D

 10  9  0  0  0  0  0  0  0  0999 V2000
    0.4265   -1.9181   -0.0514 C   0  0  0  0  0  0  0  0  0  0  0  0
    0.0274   -0.6648   -0.0819 C   0  0  0  0  0  0  0  0  0  0  0  0
   -0.4519    0.5160   -0.1532 C   0  0  0  0  0  0  0  0  0  0  0  0
    0.0058    1.8684    0.2608 C   0  0  0  0  0  0  0  0  0  0  0  0
    0.2107   -2.5534    0.7996 H   0  0  0  0  0  0  0  0  0  0  0  0
    1.0060   -2.3423   -0.8625 H   0  0  0  0  0  0  0  0  0  0  0  0
   -1.4348    0.5679   -0.6214 H   0  0  0  0  0  0  0  0  0  0  0  0
   -0.7194    2.3278    0.9365 H   0  0  0  0  0  0  0  0  0  0  0  0
    0.0962    2.5256   -0.6067 H   0  0  0  0  0  0  0  0  0  0  0  0
    0.9721    1.8260    0.7654 H   0  0  0  0  0  0  0  0  0  0  0  0
  1  2  2  0
  1  5  1  0
  1  6  1  0
  2  3  2  0
  3  4  1  0
  3  7  1  0
  4  8  1  0
  4  9  1  0
  4 10  1  0
M  END
>  <reaction>  (1) 
rmg_rxn_13854

>  <type>  (1) 
r1h

>  <mol_properties>  (1) 
{"2": {"label": "donator", "atom_type": "Cd"}, "6": {"label": "d_hydrogen", "atom_type": "H0"}}

>  <electro_map>  (1) 
{"6": {"R": null, "A": null, "D": null}, "2": {"R": 1.0899999909882152, "A": null, "D": null}, "1": {"R": 1.2763106808635207, "A": 113.99470435769965, "D": null}, "0": {"R": 1.3157191082058504, "A": 145.12814472947395, "D": 179.4689527640754}, "3": {"R": 3.8226023171442542, "A": 12.8120257735538, "D": 185.015529673216}, "4": {"R": 4.459200599430566, "A": 12.192747028553816, "D": 100.13209904582405}, "5": {"R": 1.8545690664192425, "A": 78.38025626482471, "D": 8.613402695471299}, "7": {"R": 5.293656623314043, "A": 69.8839877719159, "D": 356.45642825978035}, "8": {"R": 1.7565945623295205, "A": 69.48257269457565, "D": 177.61246515343578}, "9": {"R": 1.7717597183858833, "A": 60.31391158362375, "D": 301.068343977069}}

$$$$

     RDKit          3D

 14 14  0  0  0  0  0  0  0  0999 V2000
    1.7608    0.5214   -0.6088 H   0  0  0  0  0  0  0  0  0  0  0  0
    0.7575    0.5987   -1.0217 C   0  0  0  0  0  0  0  0  0  0  0  0
    0.3019   -0.8342   -1.1603 C   0  0  0  0  0  0  0  0  0  0  0  0
    0.0028   -1.4054    0.2179 C   0  0  0  0  0  0  0  0  0  0  0  0
   -0.8387   -0.5159    0.9350 O   0  0  0  0  0  0  0  0  0  0  0  0
   -0.2402    0.7268    1.0757 C   0  0  0  0  0  0  0  0  0  0  0  0
   -0.0039    1.3636   -0.1596 O   0  0  0  0  0  0  0  0  0  0  0  0
    0.8970    1.1434   -1.9528 H   0  0  0  0  0  0  0  0  0  0  0  0
   -0.6029   -0.8734   -1.7756 H   0  0  0  0  0  0  0  0  0  0  0  0
    1.0775   -1.4210   -1.6565 H   0  0  0  0  0  0  0  0  0  0  0  0
   -0.5262   -2.3546    0.1552 H   0  0  0  0  0  0  0  0  0  0  0  0
    0.9360   -1.5593    0.7748 H   0  0  0  0  0  0  0  0  0  0  0  0
   -0.9248    1.3657    1.6280 H   0  0  0  0  0  0  0  0  0  0  0  0
    0.7201    0.6273    1.6075 H   0  0  0  0  0  0  0  0  0  0  0  0
  1  2  1  0
  2  3  1  0
  2  7  1  0
  2  8  1  0
  3  4  1  0
  3  9  1  0
  3 10  1  0
  4  5  1  0
  4 11  1  0
  4 12  1  0
  5  6  1  0
  6  7  1  0
  6 13  1  0
  6 14  1  0
M  END
>  <reaction>  (2) 
rmg_rxn_13854

>  <type>  (2) 
r2h

>  <mol_properties>  (2) 
{"0": {"label": "a_hydrogen", "atom_type": "H0"}, "1": {"label": "acceptor", "atom_type": "Cs"}}

>  <electro_map>  (2) 
{"0": {"R": null, "A": null, "D": null}, "1": {"R": 1.08768700931974, "A": null, "D": null}, "6": {"R": 1.3813866629677305, "A": 108.1110161814681, "D": null}, "5": {"R": 1.409710419996412, "A": 98.85966374744811, "D": 120.33867281287831}, "4": {"R": 1.3864064899308086, "A": 112.8492578578205, "D": 303.8506711740448}, "3": {"R": 1.4189576622989322, "A": 110.92776364804087, "D": 62.475703618565625}, "2": {"R": 1.5215875593069947, "A": 109.81461689215338, "D": 300.8399378295712}, "7": {"R": 2.211963860159642, "A": 135.48060977449333, "D": 45.599344247211626}, "8": {"R": 2.5196319323391045, "A": 25.716816514332397, "D": 238.01047392261074}, "9": {"R": 1.77136505970068, "A": 71.7886157033462, "D": 322.4556174161815}, "10": {"R": 2.5934548267484843, "A": 64.63575713601223, "D": 131.74503704955671}, "11": {"R": 1.7760253711597973, "A": 64.75008447907443, "D": 233.7478839567569}, "12": {"R": 3.570241447426199, "A": 91.21153871154097, "D": 102.99425925376482}, "13": {"R": 1.8031941630356152, "A": 35.54187174950015, "D": 181.81418985691553}}

$$$$

     RDKit          3D

 23 22  0  0  0  0  0  0  0  0999 V2000
    2.6829   -1.9487    0.0484 C   0  0  0  0  0  0  0  0  0  0  0  0
    2.2837   -0.6953    0.0179 C   0  0  0  0  0  0  0  0  0  0  0  0
    1.8045    0.4854   -0.0534 C   0  0  0  0  0  0  0  0  0  0  0  0
    2.2622    1.8379    0.3606 C   0  0  0  0  0  0  0  0  0  0  0  0
    2.4671   -2.5839    0.8994 H   0  0  0  0  0  0  0  0  0  0  0  0
    3.2623   -2.3729   -0.7627 H   0  0  0  0  0  0  0  0  0  0  0  0
    0.5986    0.5491   -0.6278 H   0  0  0  0  0  0  0  0  0  0  0  0
    1.5370    2.2972    1.0362 H   0  0  0  0  0  0  0  0  0  0  0  0
    2.3526    2.4951   -0.5069 H   0  0  0  0  0  0  0  0  0  0  0  0
    3.2285    1.7955    0.8651 H   0  0  0  0  0  0  0  0  0  0  0  0
   -0.6522    0.6454   -1.1426 C   0  0  0  0  0  3  0  0  0  0  0  0
   -1.1078   -0.7874   -1.2812 C   0  0  0  0  0  0  0  0  0  0  0  0
   -1.4069   -1.3586    0.0970 C   0  0  0  0  0  0  0  0  0  0  0  0
   -2.2484   -0.4691    0.8141 O   0  0  0  0  0  0  0  0  0  0  0  0
   -1.6499    0.7736    0.9548 C   0  0  0  0  0  0  0  0  0  0  0  0
   -1.4136    1.4104   -0.2805 O   0  0  0  0  0  0  0  0  0  0  0  0
   -0.5128    1.1902   -2.0737 H   0  0  0  0  0  0  0  0  0  0  0  0
   -2.0126   -0.8267   -1.8965 H   0  0  0  0  0  0  0  0  0  0  0  0
   -0.3322   -1.3742   -1.7774 H   0  0  0  0  0  0  0  0  0  0  0  0
   -1.9359   -2.3078    0.0344 H   0  0  0  0  0  0  0  0  0  0  0  0
   -0.4737   -1.5126    0.6539 H   0  0  0  0  0  0  0  0  0  0  0  0
   -2.3345    1.4125    1.5071 H   0  0  0  0  0  0  0  0  0  0  0  0
   -0.6896    0.6741    1.4866 H   0  0  0  0  0  0  0  0  0  0  0  0
  1  2  2  0
  1  5  1  0
  1  6  1  0
  2  3  2  0
  3  4  1  0
  3  7  1  0
  4  8  1  0
  4  9  1  0
  4 10  1  0
 11 12  1  0
 11 16  1  0
 11 17  1  0
 12 13  1  0
 12 18  1  0
 12 19  1  0
 13 14  1  0
 13 20  1  0
 13 21  1  0
 14 15  1  0
 15 16  1  0
 15 22  1  0
 15 23  1  0
M  RAD  1  11   2
M  END
>  <reaction>  (3) 
rmg_rxn_13854

>  <type>  (3) 
ts

>  <mol_properties>  (3) 
{"1": {"label": "*0", "atom_type": "Cdd"}, "2": {"label": "*1", "atom_type": "Cd"}, "6": {"label": "*2", "atom_type": "H0"}, "10": {"label": "*3", "atom_type": "Cs"}, "15": {"label": "*4", "atom_type": "O2s"}}

$$$$
