
     RDKit          3D

 10  9  0  0  0  0  0  0  0  0999 V2000
   -0.4955   -1.8179    0.2740 C   0  0  0  0  0  0  0  0  0  0  0  0
   -0.2500   -0.6078   -0.1285 C   0  0  0  0  0  0  0  0  0  0  0  0
    0.0021    0.6140   -0.5248 C   0  0  0  0  0  0  0  0  0  0  0  0
    0.6260    1.6503    0.3079 C   0  0  0  0  0  0  0  0  0  0  0  0
   -1.4574   -2.0891    0.6956 H   0  0  0  0  0  0  0  0  0  0  0  0
    0.2548   -2.5980    0.1975 H   0  0  0  0  0  0  0  0  0  0  0  0
   -0.2152    0.8601   -1.5607 H   0  0  0  0  0  0  0  0  0  0  0  0
    1.6996    1.6088    0.1399 H   0  0  0  0  0  0  0  0  0  0  0  0
    0.5443    1.4793    1.3788 H   0  0  0  0  0  0  0  0  0  0  0  0
    0.3636    2.6689    0.0317 H   0  0  0  0  0  0  0  0  0  0  0  0
  1  2  2  0
  1  5  1  0
  1  6  1  0
  2  3  2  0
  3  4  1  0
  3  7  1  0
  4  8  1  0
  4  9  1  0
  4 10  1  0
M  END
>  <reaction>  (1) 
rmg_rxn_14197

>  <type>  (1) 
r1h

>  <mol_properties>  (1) 
{"3": {"label": "donator", "atom_type": "Cs"}, "7": {"label": "d_hydrogen", "atom_type": "H0"}}

>  <electro_map>  (1) 
{"7": {"R": null, "A": null, "D": null}, "3": {"R": 1.0875013877596715, "A": null, "D": null}, "2": {"R": 1.4685002378386272, "A": 107.75116080271685, "D": null}, "1": {"R": 1.308952214122852, "A": 120.50642394254548, "D": 252.55801171846127}, "0": {"R": 1.0, "A": 90.0, "D": 180.0}, "4": {"R": 1.2987282162437466, "A": 90.0, "D": 180.0}, "5": {"R": 1.0846816561010388, "A": 121.42950228522787, "D": 93.08412094755624}, "6": {"R": 1.8543887558990322, "A": 31.28573044080154, "D": 179.78866602910736}, "8": {"R": 3.9078053544141986, "A": 76.52037821228085, "D": 345.38165670095196}, "9": {"R": 3.098486924847305, "A": 73.77109745505072, "D": 80.84974386724267}}

$$$$

     RDKit          3D

 12 11  0  0  0  0  0  0  0  0999 V2000
    1.3860   -0.0832    1.0189 C   0  0  0  0  0  0  0  0  0  0  0  0
    0.5167   -0.6296   -0.4608 S   0  0  0  0  0  0  0  0  0  0  0  0
   -1.1704   -0.0545   -0.0828 C   0  0  0  0  0  0  0  0  0  0  0  0
   -1.3214    1.4321   -0.0379 C   0  0  0  0  0  0  0  0  0  0  0  0
    0.9304   -0.5050    1.9157 H   0  0  0  0  0  0  0  0  0  0  0  0
    1.4124    1.0033    1.0939 H   0  0  0  0  0  0  0  0  0  0  0  0
    2.4079   -0.4516    0.9399 H   0  0  0  0  0  0  0  0  0  0  0  0
   -1.7855   -0.4808   -0.8774 H   0  0  0  0  0  0  0  0  0  0  0  0
   -1.4901   -0.5148    0.8545 H   0  0  0  0  0  0  0  0  0  0  0  0
   -1.1105    1.9474   -0.9720 H   0  0  0  0  0  0  0  0  0  0  0  0
   -0.8864    1.9294    0.8259 H   0  0  0  0  0  0  0  0  0  0  0  0
   -2.3886    1.5873    0.1020 H   0  0  0  0  0  0  0  0  0  0  0  0
  1  2  1  0
  1  5  1  0
  1  6  1  0
  1  7  1  0
  2  3  1  0
  3  4  1  0
  3  8  1  0
  3  9  1  0
  4 10  1  0
  4 11  1  0
  4 12  1  0
M  END
>  <reaction>  (2) 
rmg_rxn_14197

>  <type>  (2) 
r2h

>  <mol_properties>  (2) 
{"3": {"label": "acceptor", "atom_type": "Cs"}, "11": {"label": "a_hydrogen", "atom_type": "H0"}}

>  <electro_map>  (2) 
{"11": {"R": null, "A": null, "D": null}, "3": {"R": 1.0874430148223124, "A": null, "D": null}, "2": {"R": 1.4949738217616673, "A": 104.17371462251278, "D": null}, "1": {"R": 1.8220610508870965, "A": 145.14355163731892, "D": 351.7246993760274}, "0": {"R": 1.8010531735277866, "A": 100.41342067939172, "D": 66.82537209420819}, "4": {"R": 1.0907544122117496, "A": 110.88748253961124, "D": 57.05796740218299}, "5": {"R": 1.7840177883279176, "A": 35.05794622416898, "D": 235.9753918486476}, "6": {"R": 1.7695666850670448, "A": 59.80039544966852, "D": 323.74085272310396}, "7": {"R": 4.570305405309664, "A": 61.555074190213986, "D": 65.94776712942524}, "8": {"R": 1.75729654157317, "A": 56.907944989733394, "D": 288.6345802834928}, "9": {"R": 3.08910799972221, "A": 54.72457233256725, "D": 73.16808321203273}, "10": {"R": 1.8118284888875469, "A": 54.58944957292738, "D": 176.7836639978473}}

$$$$

     RDKit          3D

 21 19  0  0  0  0  0  0  0  0999 V2000
    3.2790   -0.1293    1.0225 C   0  0  0  0  0  0  0  0  0  0  0  0
    2.4097   -0.6757   -0.4572 S   0  0  0  0  0  0  0  0  0  0  0  0
    0.7225   -0.1006   -0.0792 C   0  0  0  0  0  0  0  0  0  0  0  0
    0.5716    1.3860   -0.0343 C   0  0  0  0  0  3  0  0  0  0  0  0
    2.8233   -0.5511    1.9193 H   0  0  0  0  0  0  0  0  0  0  0  0
    3.3054    0.9572    1.0975 H   0  0  0  0  0  0  0  0  0  0  0  0
    4.3009   -0.4977    0.9435 H   0  0  0  0  0  0  0  0  0  0  0  0
    0.1075   -0.5269   -0.8738 H   0  0  0  0  0  0  0  0  0  0  0  0
    0.4029   -0.5609    0.8582 H   0  0  0  0  0  0  0  0  0  0  0  0
    0.7825    1.9013   -0.9683 H   0  0  0  0  0  0  0  0  0  0  0  0
    1.0066    1.8833    0.8295 H   0  0  0  0  0  0  0  0  0  0  0  0
   -3.2116   -1.8319    0.3133 C   0  0  0  0  0  0  0  0  0  0  0  0
   -2.9661   -0.6218   -0.0893 C   0  0  0  0  0  0  0  0  0  0  0  0
   -2.7140    0.6000   -0.4856 C   0  0  0  0  0  0  0  0  0  0  0  0
   -2.0901    1.6362    0.3472 C   0  0  0  0  0  0  0  0  0  0  0  0
   -4.1735   -2.1031    0.7349 H   0  0  0  0  0  0  0  0  0  0  0  0
   -2.4613   -2.6120    0.2368 H   0  0  0  0  0  0  0  0  0  0  0  0
   -2.9313    0.8461   -1.5214 H   0  0  0  0  0  0  0  0  0  0  0  0
   -0.8090    1.5868    0.1467 H   0  0  0  0  0  0  0  0  0  0  0  0
   -2.1718    1.4653    1.4180 H   0  0  0  0  0  0  0  0  0  0  0  0
   -2.3524    2.6549    0.0710 H   0  0  0  0  0  0  0  0  0  0  0  0
  1  2  1  0
  1  5  1  0
  1  6  1  0
  1  7  1  0
  2  3  1  0
  3  4  1  0
  3  8  1  0
  3  9  1  0
  4 10  1  0
  4 11  1  0
 12 13  2  0
 12 16  1  0
 12 17  1  0
 13 14  2  0
 14 15  1  0
 14 18  1  0
 15 19  1  0
 15 20  1  0
 15 21  1  0
M  RAD  1   4   2
M  END
>  <reaction>  (3) 
rmg_rxn_14197

>  <type>  (3) 
ts

>  <mol_properties>  (3) 
{"2": {"label": "*4", "atom_type": "Cs"}, "3": {"label": "*3", "atom_type": "Cs"}, "13": {"label": "*0", "atom_type": "Cd"}, "14": {"label": "*1", "atom_type": "Cs"}, "18": {"label": "*2", "atom_type": "H0"}}

$$$$
