
     RDKit          3D

  6  5  0  0  0  0  0  0  0  0999 V2000
    0.1013    1.0213   -0.6216 C   0  0  0  0  0  0  0  0  0  0  0  0
    0.1132    0.0696    0.3626 N   0  0  0  0  0  0  0  0  0  0  0  0
   -0.1700   -1.0810    0.2965 O   0  0  0  0  0  0  0  0  0  0  0  0
   -0.7742    1.5698   -0.2884 H   0  0  0  0  0  0  0  0  0  0  0  0
   -0.0490    0.6179   -1.6191 H   0  0  0  0  0  0  0  0  0  0  0  0
    0.9063    1.7376   -0.4976 H   0  0  0  0  0  0  0  0  0  0  0  0
  1  2  1  0
  1  4  1  0
  1  5  1  0
  1  6  1  0
  2  3  2  0
M  END
>  <reaction>  (1) 
rmg_rxn_2013

>  <type>  (1) 
r1h

>  <mol_properties>  (1) 
{"0": {"label": "donator", "atom_type": "Cs"}, "3": {"label": "d_hydrogen", "atom_type": "H0"}}

>  <electro_map>  (1) 
{"3": {"R": null, "A": null, "D": null}, "0": {"R": 1.0855498685517546, "A": null, "D": null}, "1": {"R": 1.3690928669870257, "A": 97.90604164773201, "D": null}, "2": {"R": 1.1868127540790203, "A": 130.42288682156476, "D": 256.5053402671704}, "4": {"R": 2.5632924971120117, "A": 52.246989870608495, "D": 4.831815019913919}, "5": {"R": 1.8504560681673274, "A": 88.4238562116618, "D": 15.820606908692762}}

$$$$

     RDKit          3D

  9  8  0  0  0  0  0  0  0  0999 V2000
    1.1826   -0.2041   -1.4545 H   0  0  0  0  0  0  0  0  0  0  0  0
   -1.2173    0.5621    0.8965 C   0  0  0  0  0  0  0  0  0  0  0  0
   -0.4566    0.6534   -0.3818 C   0  0  0  0  0  3  0  0  0  0  0  0
    0.5426   -0.0998   -0.6414 N   0  0  0  0  0  0  0  0  0  0  0  0
    1.0031   -0.9951    0.1247 O   0  0  0  0  0  1  0  0  0  0  0  0
   -0.5567    0.7438    1.7480 H   0  0  0  0  0  0  0  0  0  0  0  0
   -1.6266   -0.4430    1.0255 H   0  0  0  0  0  0  0  0  0  0  0  0
   -2.0320    1.2834    0.9191 H   0  0  0  0  0  0  0  0  0  0  0  0
   -0.7148    1.3637   -1.1562 H   0  0  0  0  0  0  0  0  0  0  0  0
  1  4  1  0
  2  3  1  0
  2  6  1  0
  2  7  1  0
  2  8  1  0
  3  4  1  0
  3  9  1  0
  4  5  1  0
M  CHG  2   3   1   5  -1
M  END
>  <reaction>  (2) 
rmg_rxn_2013

>  <type>  (2) 
r2h

>  <mol_properties>  (2) 
{"0": {"label": "a_hydrogen", "atom_type": "H0"}, "3": {"label": "acceptor", "atom_type": "N3s"}}

>  <electro_map>  (2) 
{"0": {"R": null, "A": null, "D": null}, "3": {"R": 1.0399999763415406, "A": null, "D": null}, "4": {"R": 1.2651167897075892, "A": 100.28086662618223, "D": null}, "2": {"R": 2.2593893596778507, "A": 62.66304511653106, "D": 0.43248407300916253}, "1": {"R": 1.4904050716766377, "A": 95.32406748666905, "D": 180.107031221393}, "5": {"R": 1.0929080992661127, "A": 110.4544009238536, "D": 59.2971042477126}, "6": {"R": 1.7536285792303434, "A": 36.647714301516814, "D": 239.96657384349342}, "7": {"R": 1.7765476330191274, "A": 60.41381532022597, "D": 323.8571782248015}, "8": {"R": 2.459356569175052, "A": 87.71066354172484, "D": 88.61771986893741}}

$$$$

     RDKit          3D

 14 12  0  0  0  0  0  0  0  0999 V2000
    1.5936    0.0710   -1.1648 C   0  0  0  0  0  0  0  0  0  0  0  0
    1.6056   -0.8807   -0.1806 N   0  0  0  0  0  2  0  0  0  0  0  0
    1.3224   -2.0313   -0.2466 O   0  0  0  0  0  1  0  0  0  0  0  0
    0.5538    0.7224   -0.7689 H   0  0  0  0  0  0  0  0  0  0  0  0
    1.4433   -0.3324   -2.1622 H   0  0  0  0  0  0  0  0  0  0  0  0
    2.3987    0.7873   -1.0407 H   0  0  0  0  0  0  0  0  0  0  0  0
   -2.0649    1.5242    1.8600 C   0  0  0  0  0  0  0  0  0  0  0  0
   -1.3042    1.6155    0.5816 C   0  0  0  0  0  3  0  0  0  0  0  0
   -0.3050    0.8623    0.3221 N   0  0  0  0  0  2  0  0  0  0  0  0
    0.1556   -0.0330    1.0882 O   0  0  0  0  0  1  0  0  0  0  0  0
   -1.4042    1.7059    2.7114 H   0  0  0  0  0  0  0  0  0  0  0  0
   -2.4742    0.5192    1.9890 H   0  0  0  0  0  0  0  0  0  0  0  0
   -2.8796    2.2456    1.8825 H   0  0  0  0  0  0  0  0  0  0  0  0
   -1.5624    2.3258   -0.1928 H   0  0  0  0  0  0  0  0  0  0  0  0
  1  6  1  0
  1  2  1  0
  1  4  1  0
  1  5  1  0
  2  3  1  0
  7 13  1  0
  7 12  1  0
  7 11  1  0
  7  8  1  0
  8  9  1  0
  8 14  1  0
  9 10  1  0
M  RAD  5   2   2   3   2   8   2   9   2  10   2
M  END
>  <reaction>  (3) 
rmg_rxn_2013

>  <type>  (3) 
ts

>  <mol_properties>  (3) 
{"0": {"label": "*1", "atom_type": "Cs"}, "1": {"label": "*0", "atom_type": "N3s"}, "3": {"label": "*2", "atom_type": "H0"}, "7": {"label": "*4", "atom_type": "Cs"}, "8": {"label": "*3", "atom_type": "N3s"}}

$$$$
