
     RDKit          3D

 13 12  0  0  0  0  0  0  0  0999 V2000
    1.5835    0.8453    0.9393 N   0  0  0  0  0  2  0  0  0  0  0  0
    1.3442    0.2424   -0.1864 N   0  0  0  0  0  0  0  0  0  0  0  0
    0.2065   -0.2471   -0.6008 C   0  0  0  0  0  3  0  0  0  0  0  0
   -1.0037   -0.1326    0.2497 C   0  0  0  0  0  0  0  0  0  0  0  0
   -2.2418   -0.7346   -0.3998 C   0  0  0  0  0  0  0  0  0  0  0  0
    2.5966    1.0690    0.8669 H   0  0  0  0  0  0  0  0  0  0  0  0
    2.1543    0.1152   -0.8144 H   0  0  0  0  0  0  0  0  0  0  0  0
    0.2123   -0.7223   -1.5704 H   0  0  0  0  0  0  0  0  0  0  0  0
   -1.1684    0.9253    0.4917 H   0  0  0  0  0  0  0  0  0  0  0  0
   -0.8058   -0.6090    1.2188 H   0  0  0  0  0  0  0  0  0  0  0  0
   -2.4723   -0.2370   -1.3440 H   0  0  0  0  0  0  0  0  0  0  0  0
   -3.1103   -0.6339    0.2512 H   0  0  0  0  0  0  0  0  0  0  0  0
   -2.1008   -1.7976   -0.6065 H   0  0  0  0  0  0  0  0  0  0  0  0
  1  2  1  0
  1  6  1  0
  2  3  1  0
  2  7  1  0
  3  4  1  0
  3  8  1  0
  4  5  1  0
  4  9  1  0
  4 10  1  0
  5 11  1  0
  5 12  1  0
  5 13  1  0
M  CHG  2   1  -1   3   1
M  END
>  <reaction>  (1) 
rmg_rxn_2538

>  <type>  (1) 
r1h

>  <mol_properties>  (1) 
{"0": {"label": "donator", "atom_type": "N1sc"}, "5": {"label": "d_hydrogen", "atom_type": "H0"}}

>  <electro_map>  (1) 
{"5": {"R": null, "A": null, "D": null}, "0": {"R": 1.040000033653699, "A": null, "D": null}, "1": {"R": 1.2992114885211, "A": 102.64502766431364, "D": null}, "2": {"R": 1.3061202628215611, "A": 161.14721348007302, "D": 0.03423153350563043}, "3": {"R": 1.4835536893123435, "A": 119.98378251662753, "D": 0.5302414621425771}, "4": {"R": 1.5221892892023894, "A": 112.84928687584508, "D": 178.98620014425333}, "6": {"R": 4.496605334437458, "A": 33.84426291430654, "D": 0.001292348231257158}, "7": {"R": 2.2459836717251545, "A": 27.777909308608763, "D": 179.14579472480372}, "8": {"R": 2.9788476377454027, "A": 87.79317919681304, "D": 16.50224913104808}, "9": {"R": 1.7361144544781175, "A": 72.80149225515284, "D": 270.2046058410687}, "10": {"R": 3.079552334045486, "A": 55.36695342577325, "D": 302.86213467906487}, "11": {"R": 1.7633628194226971, "A": 54.25001850565235, "D": 255.2349642201042}, "12": {"R": 1.7632470786350225, "A": 60.089316728477584, "D": 293.10692610071294}}

$$$$

     RDKit          3D

 12 11  0  0  0  0  0  0  0  0999 V2000
   -0.2591    1.5840    0.5793 C   0  0  0  0  0  0  0  0  0  0  0  0
    0.1873    0.5139   -0.7481 S   0  0  0  0  0  0  0  0  0  0  0  0
    0.5564   -1.0260    0.1340 C   0  0  0  0  0  0  0  0  0  0  0  0
   -0.6354   -1.7019    0.7920 C   0  0  0  0  0  0  0  0  0  0  0  0
   -0.2344    2.6190    0.2474 H   0  0  0  0  0  0  0  0  0  0  0  0
    0.3308    1.4227    1.4802 H   0  0  0  0  0  0  0  0  0  0  0  0
    1.3335   -0.7996    0.8663 H   0  0  0  0  0  0  0  0  0  0  0  0
    1.0030   -1.6732   -0.6223 H   0  0  0  0  0  0  0  0  0  0  0  0
   -1.3842   -1.9859    0.0511 H   0  0  0  0  0  0  0  0  0  0  0  0
   -0.3084   -2.6073    1.3071 H   0  0  0  0  0  0  0  0  0  0  0  0
   -1.1159   -1.0482    1.5207 H   0  0  0  0  0  0  0  0  0  0  0  0
   -1.2914    1.4271    0.8853 H   0  0  0  0  0  0  0  0  0  0  0  0
  1  2  1  0
  1  5  1  0
  1  6  1  0
  1 12  1  0
  2  3  1  0
  3  4  1  0
  3  7  1  0
  3  8  1  0
  4  9  1  0
  4 10  1  0
  4 11  1  0
M  END
>  <reaction>  (2) 
rmg_rxn_2538

>  <type>  (2) 
r2h

>  <mol_properties>  (2) 
{"0": {"label": "acceptor", "atom_type": "Cs"}, "11": {"label": "a_hydrogen", "atom_type": "H0"}}

>  <electro_map>  (2) 
{"11": {"R": null, "A": null, "D": null}, "0": {"R": 1.0880419969973216, "A": null, "D": null}, "1": {"R": 1.7625375270230217, "A": 111.38200688757212, "D": null}, "2": {"R": 1.8126692199637606, "A": 96.78847066464425, "D": 102.854539542224}, "3": {"R": 1.5198623571063763, "A": 115.39427404469761, "D": 67.350218591234}, "4": {"R": 4.373547122040751, "A": 55.58791546229167, "D": 329.0119397361644}, "5": {"R": 1.8084747077538035, "A": 44.78341591341593, "D": 275.61846232691096}, "6": {"R": 2.5141841956178608, "A": 122.88066873431706, "D": 44.63305670247901}, "7": {"R": 1.757377333287514, "A": 124.8373701911375, "D": 333.6195974098321}, "8": {"R": 2.5000829682887797, "A": 90.77875649464973, "D": 294.76741728268246}, "9": {"R": 1.7666779475781613, "A": 69.75540177490362, "D": 304.9300152207447}, "10": {"R": 1.7687951719089627, "A": 59.851204802535754, "D": 103.13992015590874}}

$$$$

     RDKit          3D

 24 22  0  0  0  0  0  0  0  0999 V2000
    1.8714    1.4056    0.5066 C   0  0  0  0  0  3  0  0  0  0  0  0
    2.3179    0.3355   -0.8209 S   0  0  0  0  0  0  0  0  0  0  0  0
    2.6869   -1.2045    0.0613 C   0  0  0  0  0  0  0  0  0  0  0  0
    1.4951   -1.8803    0.7192 C   0  0  0  0  0  0  0  0  0  0  0  0
    1.8961    2.4406    0.1746 H   0  0  0  0  0  0  0  0  0  0  0  0
    2.4613    1.2443    1.4075 H   0  0  0  0  0  0  0  0  0  0  0  0
    3.4640   -0.9780    0.7936 H   0  0  0  0  0  0  0  0  0  0  0  0
    3.1336   -1.8517   -0.6950 H   0  0  0  0  0  0  0  0  0  0  0  0
    0.7463   -2.1644   -0.0216 H   0  0  0  0  0  0  0  0  0  0  0  0
    1.8222   -2.7858    1.2344 H   0  0  0  0  0  0  0  0  0  0  0  0
    1.0146   -1.2266    1.4479 H   0  0  0  0  0  0  0  0  0  0  0  0
   -0.6244    0.9428    0.9735 N   0  0  0  0  0  2  0  0  0  0  0  0
   -0.8636    0.3399   -0.1522 N   0  0  0  0  0  0  0  0  0  0  0  0
   -2.0014   -0.1496   -0.5666 C   0  0  0  0  0  3  0  0  0  0  0  0
   -3.2116   -0.0351    0.2839 C   0  0  0  0  0  0  0  0  0  0  0  0
   -4.4496   -0.6371   -0.3656 C   0  0  0  0  0  0  0  0  0  0  0  0
    0.5887    1.2106    0.8868 H   0  0  0  0  0  0  0  0  0  0  0  0
   -0.0536    0.2127   -0.7802 H   0  0  0  0  0  0  0  0  0  0  0  0
   -1.9956   -0.6249   -1.5362 H   0  0  0  0  0  0  0  0  0  0  0  0
   -3.3763    1.0228    0.5259 H   0  0  0  0  0  0  0  0  0  0  0  0
   -3.0137   -0.5115    1.2530 H   0  0  0  0  0  0  0  0  0  0  0  0
   -4.6802   -0.1395   -1.3098 H   0  0  0  0  0  0  0  0  0  0  0  0
   -5.3182   -0.5364    0.2854 H   0  0  0  0  0  0  0  0  0  0  0  0
   -4.3087   -1.7002   -0.5723 H   0  0  0  0  0  0  0  0  0  0  0  0
  1  2  1  0
  1  5  1  0
  1  6  1  0
  2  3  1  0
  3  4  1  0
  3  7  1  0
  3  8  1  0
  4  9  1  0
  4 10  1  0
  4 11  1  0
 12 13  1  0
 12 17  1  0
 13 14  1  0
 13 18  1  0
 14 15  1  0
 14 19  1  0
 15 16  1  0
 15 20  1  0
 15 21  1  0
 16 22  1  0
 16 23  1  0
 16 24  1  0
M  CHG  2  12  -1  14   1
M  RAD  1   1   2
M  END
>  <reaction>  (3) 
rmg_rxn_2538

>  <type>  (3) 
ts

>  <mol_properties>  (3) 
{"0": {"label": "*3", "atom_type": "Cs"}, "1": {"label": "*4", "atom_type": "S2s"}, "11": {"label": "*1", "atom_type": "N1sc"}, "12": {"label": "*0", "atom_type": "N3s"}, "16": {"label": "*2", "atom_type": "H0"}}

$$$$
