
     RDKit          3D

 10  9  0  0  0  0  0  0  0  0999 V2000
   -1.3974   -1.2221    0.4319 C   0  0  0  0  0  0  0  0  0  0  0  0
   -0.4957   -0.2908    0.3459 C   0  0  0  0  0  0  0  0  0  0  0  0
    0.4177    0.6429    0.2484 C   0  0  0  0  0  0  0  0  0  0  0  0
    1.3062    0.8316   -0.9022 C   0  0  0  0  0  0  0  0  0  0  0  0
   -1.1504   -2.2103    0.8064 H   0  0  0  0  0  0  0  0  0  0  0  0
   -2.4254   -1.0443    0.1340 H   0  0  0  0  0  0  0  0  0  0  0  0
    0.5624    1.2910    1.1089 H   0  0  0  0  0  0  0  0  0  0  0  0
    2.2335    0.3029   -0.6948 H   0  0  0  0  0  0  0  0  0  0  0  0
    1.6411    1.8559   -1.0492 H   0  0  0  0  0  0  0  0  0  0  0  0
    0.9609    0.3724   -1.8251 H   0  0  0  0  0  0  0  0  0  0  0  0
  1  2  2  0
  1  5  1  0
  1  6  1  0
  2  3  2  0
  3  4  1  0
  3  7  1  0
  4  8  1  0
  4  9  1  0
  4 10  1  0
M  END
>  <reaction>  (1) 
rmg_rxn_14135

>  <type>  (1) 
r1h

>  <mol_properties>  (1) 
{"3": {"label": "donator", "atom_type": "Cs"}, "7": {"label": "d_hydrogen", "atom_type": "H0"}}

>  <electro_map>  (1) 
{"7": {"R": null, "A": null, "D": null}, "3": {"R": 1.0873754846607098, "A": null, "D": null}, "2": {"R": 1.4659971045430358, "A": 107.73503867944584, "D": null}, "1": {"R": 1.309781255950174, "A": 121.8376256273564, "D": 105.84761382991928}, "0": {"R": 1.0, "A": 90.0, "D": 180.0}, "4": {"R": 1.2991143621095231, "A": 90.0, "D": 180.0}, "5": {"R": 1.0852918832601772, "A": 121.11421412752719, "D": 86.42281030798046}, "6": {"R": 1.8540152227153317, "A": 31.310835192281026, "D": 179.94817741046148}, "8": {"R": 3.9155095332261873, "A": 76.1133368602669, "D": 345.5167923941255}, "9": {"R": 2.4779037549999736, "A": 104.55443204879043, "D": 103.55062394093757}}

$$$$

     RDKit          3D

 14 13  0  0  0  0  0  0  0  0999 V2000
   -0.6090    1.1325   -0.6291 H   0  0  0  0  0  0  0  0  0  0  0  0
    1.0003    1.5814    0.5704 C   0  0  0  0  0  0  0  0  0  0  0  0
    0.2884    0.5973   -0.3149 C   0  0  0  0  0  0  0  0  0  0  0  0
   -0.2489   -0.6404    0.3507 C   0  0  0  0  0  0  0  0  0  0  0  0
   -1.0046   -1.5608   -0.5986 C   0  0  0  0  0  0  0  0  0  0  0  0
    1.2940    2.4780    0.0219 H   0  0  0  0  0  0  0  0  0  0  0  0
    1.9078    1.1458    1.0037 H   0  0  0  0  0  0  0  0  0  0  0  0
    0.3606    1.8875    1.4030 H   0  0  0  0  0  0  0  0  0  0  0  0
    0.7930    0.4023   -1.2625 H   0  0  0  0  0  0  0  0  0  0  0  0
   -0.9066   -0.3426    1.1748 H   0  0  0  0  0  0  0  0  0  0  0  0
    0.5817   -1.1902    0.8141 H   0  0  0  0  0  0  0  0  0  0  0  0
   -1.3542   -2.4577   -0.0851 H   0  0  0  0  0  0  0  0  0  0  0  0
   -1.8769   -1.0557   -1.0179 H   0  0  0  0  0  0  0  0  0  0  0  0
   -0.3674   -1.8766   -1.4280 H   0  0  0  0  0  0  0  0  0  0  0  0
  1  3  1  0
  2  3  1  0
  2  6  1  0
  2  7  1  0
  2  8  1  0
  3  4  1  0
  3  9  1  0
  4  5  1  0
  4 10  1  0
  4 11  1  0
  5 12  1  0
  5 13  1  0
  5 14  1  0
M  END
>  <reaction>  (2) 
rmg_rxn_14135

>  <type>  (2) 
r2h

>  <mol_properties>  (2) 
{"0": {"label": "a_hydrogen", "atom_type": "H0"}, "2": {"label": "acceptor", "atom_type": "Cs"}}

>  <electro_map>  (2) 
{"0": {"R": null, "A": null, "D": null}, "2": {"R": 1.091137845807516, "A": null, "D": null}, "3": {"R": 1.5045289967241051, "A": 103.71619637545797, "D": null}, "1": {"R": 2.558392093078915, "A": 51.53883387046856, "D": 38.03588623182076}, "4": {"R": 3.9063352041488772, "A": 12.871136911592561, "D": 3.731632625868797}, "5": {"R": 4.6882899318132205, "A": 10.204850537090834, "D": 178.01050884252945}, "6": {"R": 1.765029671827542, "A": 66.04166955887875, "D": 31.884325794162173}, "7": {"R": 1.7616703678093428, "A": 60.18905495051534, "D": 287.6011338335633}, "8": {"R": 3.0818028818672922, "A": 58.5214718706895, "D": 63.67511457743733}, "9": {"R": 3.063338962780827, "A": 49.54874672897048, "D": 110.42068594450689}, "10": {"R": 1.7503407010444183, "A": 58.8041843535949, "D": 252.58044550288525}, "11": {"R": 2.482547879866585, "A": 70.0496422002209, "D": 263.4367841489384}, "12": {"R": 1.7632301089907656, "A": 90.96139825292973, "D": 56.23303108804878}, "13": {"R": 1.7664738867800398, "A": 59.998833269724294, "D": 67.1255393583667}}

$$$$

     RDKit          3D

 23 21  0  0  0  0  0  0  0  0999 V2000
   -3.0749   -0.6598    0.4003 C   0  0  0  0  0  0  0  0  0  0  0  0
   -2.1732    0.2715    0.3144 C   0  0  0  0  0  0  0  0  0  0  0  0
   -1.2598    1.2052    0.2169 C   0  0  0  0  0  0  0  0  0  0  0  0
   -0.3712    1.3939   -0.9338 C   0  0  0  0  0  0  0  0  0  0  0  0
   -2.8278   -1.6480    0.7748 H   0  0  0  0  0  0  0  0  0  0  0  0
   -4.1029   -0.4820    0.1024 H   0  0  0  0  0  0  0  0  0  0  0  0
   -1.1150    1.8533    1.0773 H   0  0  0  0  0  0  0  0  0  0  0  0
    0.7495    0.7549   -0.6831 H   0  0  0  0  0  0  0  0  0  0  0  0
   -0.0363    2.4182   -1.0808 H   0  0  0  0  0  0  0  0  0  0  0  0
   -0.7166    0.9347   -1.8567 H   0  0  0  0  0  0  0  0  0  0  0  0
    2.6010    1.0594    0.6011 C   0  0  0  0  0  0  0  0  0  0  0  0
    1.8891    0.0753   -0.2841 C   0  0  0  0  0  3  0  0  0  0  0  0
    1.3518   -1.1624    0.3814 C   0  0  0  0  0  0  0  0  0  0  0  0
    0.5961   -2.0827   -0.5679 C   0  0  0  0  0  0  0  0  0  0  0  0
    2.8947    1.9560    0.0527 H   0  0  0  0  0  0  0  0  0  0  0  0
    3.5085    0.6239    1.0345 H   0  0  0  0  0  0  0  0  0  0  0  0
    1.9613    1.3656    1.4337 H   0  0  0  0  0  0  0  0  0  0  0  0
    2.3938   -0.1196   -1.2317 H   0  0  0  0  0  0  0  0  0  0  0  0
    0.6941   -0.8646    1.2056 H   0  0  0  0  0  0  0  0  0  0  0  0
    2.1825   -1.7122    0.8449 H   0  0  0  0  0  0  0  0  0  0  0  0
    0.2465   -2.9797   -0.0544 H   0  0  0  0  0  0  0  0  0  0  0  0
   -0.2761   -1.5776   -0.9871 H   0  0  0  0  0  0  0  0  0  0  0  0
    1.2333   -2.3985   -1.3972 H   0  0  0  0  0  0  0  0  0  0  0  0
  1  2  2  0
  1  5  1  0
  1  6  1  0
  2  3  2  0
  3  4  1  0
  3  7  1  0
  4  8  1  0
  4  9  1  0
  4 10  1  0
 11 12  1  0
 11 15  1  0
 11 16  1  0
 11 17  1  0
 12 13  1  0
 12 18  1  0
 13 14  1  0
 13 19  1  0
 13 20  1  0
 14 21  1  0
 14 22  1  0
 14 23  1  0
M  RAD  1  12   2
M  END
>  <reaction>  (3) 
rmg_rxn_14135

>  <type>  (3) 
ts

>  <mol_properties>  (3) 
{"2": {"label": "*0", "atom_type": "Cd"}, "3": {"label": "*1", "atom_type": "Cs"}, "7": {"label": "*2", "atom_type": "H0"}, "11": {"label": "*3", "atom_type": "Cs"}, "12": {"label": "*4", "atom_type": "Cs"}}

$$$$
