
     RDKit          3D

  9  8  0  0  0  0  0  0  0  0999 V2000
   -1.2229    0.5153   -0.2221 O   0  0  0  0  0  0  0  0  0  0  0  0
   -0.6274   -0.6588   -0.1249 N   0  0  0  0  0  0  0  0  0  0  0  0
    1.4388    0.6005    0.2755 C   0  0  0  0  0  0  0  0  0  0  0  0
    0.6227   -0.6395    0.1085 C   0  0  0  0  0  0  0  0  0  0  0  0
    2.4826    0.3596    0.4676 H   0  0  0  0  0  0  0  0  0  0  0  0
    1.0551    1.2012    1.1037 H   0  0  0  0  0  0  0  0  0  0  0  0
    1.3772    1.2216   -0.6213 H   0  0  0  0  0  0  0  0  0  0  0  0
    1.0792   -1.6191    0.1820 H   0  0  0  0  0  0  0  0  0  0  0  0
   -2.1488    0.3308   -0.3960 H   0  0  0  0  0  0  0  0  0  0  0  0
  1  2  1  0
  1  9  1  0
  2  4  2  3
  3  4  1  0
  3  5  1  0
  3  6  1  0
  3  7  1  0
  4  8  1  0
M  END
>  <reaction>  (1) 
rmg_rxn_13885

>  <type>  (1) 
r1h

>  <mol_properties>  (1) 
{"0": {"label": "donator", "atom_type": "O2s"}, "8": {"label": "d_hydrogen", "atom_type": "H0"}}

>  <electro_map>  (1) 
{"8": {"R": null, "A": null, "D": null}, "0": {"R": 0.9599999296665166, "A": null, "D": null}, "1": {"R": 1.3200380841454387, "A": 106.11015959798722, "D": null}, "3": {"R": 1.2719135644113388, "A": 146.48938978671737, "D": 0.09195192756122643}, "2": {"R": 1.4937792372136653, "A": 124.7614143958068, "D": 0.007888019067204774}, "4": {"R": 1.0882603344136315, "A": 111.10007815731521, "D": 179.98627145858055}, "5": {"R": 1.775021622754418, "A": 35.60534188237928, "D": 238.11220256845326}, "6": {"R": 1.7548542137129535, "A": 60.37497440766042, "D": 322.5731084952277}, "7": {"R": 2.9671559119690047, "A": 72.8007896042279, "D": 59.43180506497902}}

$$$$

     RDKit          3D

 10  9  0  0  0  0  0  0  0  0999 V2000
    0.5749   -1.8082    0.0274 C   0  0  0  0  0  0  0  0  0  0  0  0
    0.6003   -0.3258    0.0917 C   0  0  0  0  0  0  0  0  0  0  0  0
   -1.0150    1.6854   -0.1093 C   0  0  0  0  0  0  0  0  0  0  0  0
   -0.2281    0.6346   -0.0142 C   0  0  0  0  0  0  0  0  0  0  0  0
    1.2210   -2.1672   -0.7746 H   0  0  0  0  0  0  0  0  0  0  0  0
   -0.4419   -2.1641   -0.1472 H   0  0  0  0  0  0  0  0  0  0  0  0
    0.9486   -2.2374    0.9578 H   0  0  0  0  0  0  0  0  0  0  0  0
    1.6107    0.0351    0.2838 H   0  0  0  0  0  0  0  0  0  0  0  0
   -1.1944    2.1652   -1.0641 H   0  0  0  0  0  0  0  0  0  0  0  0
   -1.5159    2.0895    0.7624 H   0  0  0  0  0  0  0  0  0  0  0  0
  1  2  1  0
  1  5  1  0
  1  6  1  0
  1  7  1  0
  2  4  2  0
  2  8  1  0
  3  4  2  0
  3  9  1  0
  3 10  1  0
M  END
>  <reaction>  (2) 
rmg_rxn_13885

>  <type>  (2) 
r2h

>  <mol_properties>  (2) 
{"1": {"label": "acceptor", "atom_type": "Cd"}, "7": {"label": "a_hydrogen", "atom_type": "H0"}}

>  <electro_map>  (2) 
{"7": {"R": null, "A": null, "D": null}, "1": {"R": 1.0899999909882152, "A": null, "D": null}, "3": {"R": 1.2727001372299427, "A": 111.60521619493775, "D": null}, "2": {"R": 1.3162121275899104, "A": 144.81638433857293, "D": 180.01189139617637}, "0": {"R": 3.8407303028243476, "A": 12.515800675275642, "D": 179.95925755461624}, "4": {"R": 1.0906806385090486, "A": 121.22994485608436, "D": 288.14916963900345}, "5": {"R": 1.7773304027014283, "A": 35.470822711738286, "D": 264.68604609125305}, "6": {"R": 1.7775994756148463, "A": 59.166758289713215, "D": 322.9191055594725}, "8": {"R": 5.297397463977705, "A": 53.98964643625016, "D": 85.36516945545803}, "9": {"R": 1.8560619169052488, "A": 70.1619848590567, "D": 111.45973183750748}}

$$$$

     RDKit          3D

 18 16  0  0  0  0  0  0  0  0999 V2000
    0.7278    0.4744    0.1348 O   0  0  0  0  0  0  0  0  0  0  0  0
    1.3233   -0.6997    0.2320 N   0  0  0  0  0  0  0  0  0  0  0  0
    3.3896    0.5596    0.6324 C   0  0  0  0  0  0  0  0  0  0  0  0
   -1.6803   -1.6707   -0.3798 C   0  0  0  0  0  0  0  0  0  0  0  0
   -1.6548   -0.1884   -0.3155 C   0  0  0  0  0  3  0  0  0  0  0  0
    2.5735   -0.6803    0.4654 C   0  0  0  0  0  0  0  0  0  0  0  0
   -3.2701    1.8228   -0.5164 C   0  0  0  0  0  0  0  0  0  0  0  0
   -2.4833    0.7720   -0.4214 C   0  0  0  0  0  0  0  0  0  0  0  0
    4.4333    0.3188    0.8244 H   0  0  0  0  0  0  0  0  0  0  0  0
    3.0058    1.1603    1.4605 H   0  0  0  0  0  0  0  0  0  0  0  0
    3.3279    1.1808   -0.2644 H   0  0  0  0  0  0  0  0  0  0  0  0
   -1.0341   -2.0297   -1.1817 H   0  0  0  0  0  0  0  0  0  0  0  0
   -2.6971   -2.0267   -0.5544 H   0  0  0  0  0  0  0  0  0  0  0  0
   -1.3066   -2.0999    0.5506 H   0  0  0  0  0  0  0  0  0  0  0  0
    3.0299   -1.6600    0.5388 H   0  0  0  0  0  0  0  0  0  0  0  0
   -0.4642    0.2369   -0.0891 H   0  0  0  0  0  0  0  0  0  0  0  0
   -3.4496    2.3026   -1.4713 H   0  0  0  0  0  0  0  0  0  0  0  0
   -3.7711    2.2270    0.3552 H   0  0  0  0  0  0  0  0  0  0  0  0
  1  2  1  0
  1 16  1  0
  2  6  2  3
  3  6  1  0
  3  9  1  0
  3 10  1  0
  3 11  1  0
  4  5  1  0
  4 12  1  0
  4 13  1  0
  4 14  1  0
  5  8  2  0
  6 15  1  0
  7  8  2  0
  7 17  1  0
  7 18  1  0
M  RAD  1   5   2
M  END
>  <reaction>  (3) 
rmg_rxn_13885

>  <type>  (3) 
ts

>  <mol_properties>  (3) 
{"0": {"label": "*1", "atom_type": "O2s"}, "1": {"label": "*0", "atom_type": "N3d"}, "4": {"label": "*3", "atom_type": "Cd"}, "7": {"label": "*4", "atom_type": "Cdd"}, "15": {"label": "*2", "atom_type": "H0"}}

$$$$
