
     RDKit          3D

 10  9  0  0  0  0  0  0  0  0999 V2000
   -1.7367   -0.8884   -0.0031 C   0  0  0  0  0  0  0  0  0  0  0  0
   -0.5054   -0.4406   -0.0009 C   0  0  0  0  0  0  0  0  0  0  0  0
    0.7231   -0.0743    0.0012 C   0  0  0  0  0  0  0  0  0  0  0  0
    1.3766    1.2642    0.0025 C   0  0  0  0  0  0  0  0  0  0  0  0
   -2.2643   -1.0725   -0.9315 H   0  0  0  0  0  0  0  0  0  0  0  0
   -2.2675   -1.0727    0.9234 H   0  0  0  0  0  0  0  0  0  0  0  0
    1.4446   -0.8913    0.0024 H   0  0  0  0  0  0  0  0  0  0  0  0
    2.0148    1.3806   -0.8763 H   0  0  0  0  0  0  0  0  0  0  0  0
    2.0118    1.3804    0.8835 H   0  0  0  0  0  0  0  0  0  0  0  0
    0.6369    2.0655    0.0014 H   0  0  0  0  0  0  0  0  0  0  0  0
  1  2  2  0
  1  5  1  0
  1  6  1  0
  2  3  2  0
  3  4  1  0
  3  7  1  0
  4  8  1  0
  4  9  1  0
  4 10  1  0
M  END
>  <reaction>  (1) 
rmg_rxn_14121

>  <type>  (1) 
r1h

>  <mol_properties>  (1) 
{"2": {"label": "donator", "atom_type": "Cd"}, "6": {"label": "d_hydrogen", "atom_type": "H0"}}

>  <electro_map>  (1) 
{"6": {"R": null, "A": null, "D": null}, "2": {"R": 1.0899999909882152, "A": null, "D": null}, "1": {"R": 1.28191084217867, "A": 114.84736704054994, "D": null}, "0": {"R": 1.310210547234805, "A": 147.00011153786295, "D": 180.00007152870563}, "3": {"R": 3.7850563500668195, "A": 14.676163789634138, "D": 179.99936827846128}, "4": {"R": 4.425985521819459, "A": 12.254343926884484, "D": 99.15737879034772}, "5": {"R": 1.8549007148597751, "A": 77.90420588849794, "D": 9.367319404202561}, "7": {"R": 5.2531719616408274, "A": 69.8762548158077, "D": 357.1423725804779}, "8": {"R": 1.7597945504134616, "A": 69.8762548158077, "D": 180.00018658421692}, "9": {"R": 1.7713717894858503, "A": 60.21596021176366, "D": 303.7174257726001}}

$$$$

     RDKit          3D

  5  4  0  0  0  0  0  0  0  0999 V2000
    0.0302   -0.0286    0.0000 C   0  0  0  0  0  0  0  0  0  0  0  0
    0.5890    0.1487   -0.9129 H   0  0  0  0  0  0  0  0  0  0  0  0
   -0.5673   -0.9341   -0.0011 H   0  0  0  0  0  0  0  0  0  0  0  0
    0.5858    0.1484    0.9150 H   0  0  0  0  0  0  0  0  0  0  0  0
   -0.7337    0.7418   -0.0012 H   0  0  0  0  0  0  0  0  0  0  0  0
  1  2  1  0
  1  3  1  0
  1  4  1  0
  1  5  1  0
M  END
>  <reaction>  (2) 
rmg_rxn_14121

>  <type>  (2) 
r2h

>  <mol_properties>  (2) 
{"0": {"label": "acceptor", "atom_type": "Cs"}, "4": {"label": "a_hydrogen", "atom_type": "H0"}}

>  <electro_map>  (2) 
{"4": {"R": null, "A": null, "D": null}, "0": {"R": 1.0849161352876617, "A": null, "D": null}, "1": {"R": 1.0849161352876617, "A": 104.22051404338241, "D": null}, "2": {"R": 1.8277313591120394, "A": 56.700763976220976, "D": 37.15896638858487}, "3": {"R": 1.8277313591120394, "A": 60.00359909141619, "D": 334.48111990588757}}

$$$$

     RDKit          3D

 14 12  0  0  0  0  0  0  0  0999 V2000
    2.0221   -1.6089    0.0027 C   0  0  0  0  0  3  0  0  0  0  0  0
    2.5809   -1.4316   -0.9103 H   0  0  0  0  0  0  0  0  0  0  0  0
    1.4246   -2.5144    0.0015 H   0  0  0  0  0  0  0  0  0  0  0  0
    2.5777   -1.4320    0.9176 H   0  0  0  0  0  0  0  0  0  0  0  0
   -2.2742   -0.4669   -0.0045 C   0  0  0  0  0  0  0  0  0  0  0  0
   -1.0429   -0.0191   -0.0024 C   0  0  0  0  0  0  0  0  0  0  0  0
    0.1855    0.3472   -0.0002 C   0  0  0  0  0  0  0  0  0  0  0  0
    0.8391    1.6858    0.0011 C   0  0  0  0  0  0  0  0  0  0  0  0
   -2.8019   -0.6509   -0.9329 H   0  0  0  0  0  0  0  0  0  0  0  0
   -2.8051   -0.6512    0.9220 H   0  0  0  0  0  0  0  0  0  0  0  0
    1.0248   -0.6031    0.0011 H   0  0  0  0  0  0  0  0  0  0  0  0
    1.4772    1.8022   -0.8777 H   0  0  0  0  0  0  0  0  0  0  0  0
    1.4742    1.8020    0.8821 H   0  0  0  0  0  0  0  0  0  0  0  0
    0.0994    2.4871   -0.0001 H   0  0  0  0  0  0  0  0  0  0  0  0
  1  2  1  0
  1  3  1  0
  1  4  1  0
  5  6  2  0
  5  9  1  0
  5 10  1  0
  6  7  2  0
  7  8  1  0
  7 11  1  0
  8 12  1  0
  8 13  1  0
  8 14  1  0
M  RAD  1   1   2
M  END
>  <reaction>  (3) 
rmg_rxn_14121

>  <type>  (3) 
ts

>  <mol_properties>  (3) 
{"0": {"label": "*3", "atom_type": "Cs"}, "1": {"label": "*4", "atom_type": "H0"}, "5": {"label": "*0", "atom_type": "Cdd"}, "6": {"label": "*1", "atom_type": "Cd"}, "10": {"label": "*2", "atom_type": "H0"}}

$$$$
