
     RDKit          3D

 10  9  0  0  0  0  0  0  0  0999 V2000
    0.2764   -0.5824   -1.8491 C   0  0  0  0  0  0  0  0  0  0  0  0
    0.2126   -0.2662   -0.5770 C   0  0  0  0  0  0  0  0  0  0  0  0
    0.2366   -0.0001    0.6740 C   0  0  0  0  0  0  0  0  0  0  0  0
   -0.6553    0.7662    1.5882 C   0  0  0  0  0  0  0  0  0  0  0  0
    0.7713    0.0668   -2.5622 H   0  0  0  0  0  0  0  0  0  0  0  0
   -0.1816   -1.4898   -2.2249 H   0  0  0  0  0  0  0  0  0  0  0  0
    1.0999   -0.4253    1.1860 H   0  0  0  0  0  0  0  0  0  0  0  0
   -1.0301    0.1205    2.3837 H   0  0  0  0  0  0  0  0  0  0  0  0
   -1.5036    1.1830    1.0444 H   0  0  0  0  0  0  0  0  0  0  0  0
   -0.1043    1.5818    2.0593 H   0  0  0  0  0  0  0  0  0  0  0  0
  1  2  2  0
  1  5  1  0
  1  6  1  0
  2  3  2  0
  3  4  1  0
  3  7  1  0
  4  8  1  0
  4  9  1  0
  4 10  1  0
M  END
>  <reaction>  (1) 
rmg_rxn_13887

>  <type>  (1) 
r1h

>  <mol_properties>  (1) 
{"2": {"label": "donator", "atom_type": "Cd"}, "6": {"label": "d_hydrogen", "atom_type": "H0"}}

>  <electro_map>  (1) 
{"6": {"R": null, "A": null, "D": null}, "2": {"R": 1.089999936305053, "A": null, "D": null}, "1": {"R": 1.279269478773925, "A": 113.14806056202266, "D": null}, "0": {"R": 1.3123709751470376, "A": 145.27464773289506, "D": 179.39160079136582}, "3": {"R": 3.8081465081954056, "A": 13.552031601328432, "D": 185.6667121696402}, "4": {"R": 4.444115663659354, "A": 12.247683132345026, "D": 100.14722332967796}, "5": {"R": 1.855984136377974, "A": 78.3148717221206, "D": 8.81473976196863}, "7": {"R": 4.955088133119574, "A": 89.1062841036845, "D": 357.0921107763543}, "8": {"R": 1.773997483087098, "A": 62.490816502399554, "D": 54.9193678463655}, "9": {"R": 1.773997483087098, "A": 59.48245108409846, "D": 252.04372794539913}}

$$$$

     RDKit          3D

 12 11  0  0  0  0  0  0  0  0999 V2000
    1.3013    1.0291    0.2438 C   0  0  0  0  0  0  0  0  0  0  0  0
    0.3953    0.4103   -0.8111 C   0  0  0  0  0  0  0  0  0  0  0  0
   -0.3469   -0.8201   -0.3077 C   0  0  0  0  0  0  0  0  0  0  0  0
   -1.1648   -0.5831    0.7875 O   0  0  0  0  0  0  0  0  0  0  0  0
    2.0811    0.3275    0.5503 H   0  0  0  0  0  0  0  0  0  0  0  0
    1.7900    1.9294   -0.1317 H   0  0  0  0  0  0  0  0  0  0  0  0
    0.7275    1.2978    1.1316 H   0  0  0  0  0  0  0  0  0  0  0  0
   -0.3457    1.1423   -1.1460 H   0  0  0  0  0  0  0  0  0  0  0  0
    0.9772    0.1254   -1.6930 H   0  0  0  0  0  0  0  0  0  0  0  0
   -0.9256   -1.2798   -1.1248 H   0  0  0  0  0  0  0  0  0  0  0  0
    0.3650   -1.5930    0.0206 H   0  0  0  0  0  0  0  0  0  0  0  0
   -1.9729   -0.2027    0.4355 H   0  0  0  0  0  0  0  0  0  0  0  0
  1  2  1  0
  1  5  1  0
  1  6  1  0
  1  7  1  0
  2  3  1  0
  2  8  1  0
  2  9  1  0
  3  4  1  0
  3 10  1  0
  3 11  1  0
  4 12  1  0
M  END
>  <reaction>  (2) 
rmg_rxn_13887

>  <type>  (2) 
r2h

>  <mol_properties>  (2) 
{"3": {"label": "acceptor", "atom_type": "O2s"}, "11": {"label": "a_hydrogen", "atom_type": "H0"}}

>  <electro_map>  (2) 
{"11": {"R": null, "A": null, "D": null}, "3": {"R": 0.9600000227987764, "A": null, "D": null}, "2": {"R": 1.3872375807172717, "A": 105.93138755992231, "D": null}, "1": {"R": 1.5225141808361484, "A": 106.5710008578771, "D": 249.8142830091365}, "0": {"R": 1.5220024979780153, "A": 112.93102611481004, "D": 59.55698094277486}, "4": {"R": 1.092914425615773, "A": 110.98540879618801, "D": 62.035738036577385}, "5": {"R": 1.7651708913531692, "A": 36.03478077679949, "D": 122.19013071262167}, "6": {"R": 1.7673293808056236, "A": 59.9163664339534, "D": 37.384491216366435}, "7": {"R": 2.522487591504068, "A": 68.43586229755118, "D": 257.16026822772085}, "8": {"R": 1.755959309586594, "A": 89.79565904505945, "D": 59.64637186613805}, "9": {"R": 2.432712842484048, "A": 70.88163426418235, "D": 99.5259199972713}, "10": {"R": 1.7537773101920628, "A": 71.3412132486617, "D": 247.01227658541046}}

$$$$

     RDKit          3D

 21 19  0  0  0  0  0  0  0  0999 V2000
    2.9051    0.8077    0.6613 C   0  0  0  0  0  0  0  0  0  0  0  0
    1.9991    0.1889   -0.3935 C   0  0  0  0  0  0  0  0  0  0  0  0
    1.2569   -1.0415    0.1098 C   0  0  0  0  0  0  0  0  0  0  0  0
    0.4391   -0.8045    1.2050 O   0  0  0  0  0  1  0  0  0  0  0  0
    3.6850    0.1061    0.9679 H   0  0  0  0  0  0  0  0  0  0  0  0
    3.3938    1.7079    0.2859 H   0  0  0  0  0  0  0  0  0  0  0  0
    2.3313    1.0764    1.5491 H   0  0  0  0  0  0  0  0  0  0  0  0
    1.2582    0.9209   -0.7284 H   0  0  0  0  0  0  0  0  0  0  0  0
    2.5811   -0.0960   -1.2754 H   0  0  0  0  0  0  0  0  0  0  0  0
    0.6783   -1.5012   -0.7073 H   0  0  0  0  0  0  0  0  0  0  0  0
    1.9689   -1.8144    0.4381 H   0  0  0  0  0  0  0  0  0  0  0  0
   -1.5835   -0.3948   -2.3700 C   0  0  0  0  0  0  0  0  0  0  0  0
   -1.6473   -0.0786   -1.0979 C   0  0  0  0  0  0  0  0  0  0  0  0
   -1.6233    0.1875    0.1532 C   0  0  0  0  0  0  0  0  0  0  0  0
   -2.5152    0.9539    1.0673 C   0  0  0  0  0  0  0  0  0  0  0  0
   -1.0886    0.2544   -3.0831 H   0  0  0  0  0  0  0  0  0  0  0  0
   -2.0415   -1.3022   -2.7458 H   0  0  0  0  0  0  0  0  0  0  0  0
   -0.6486   -0.2925    0.7313 H   0  0  0  0  0  0  0  0  0  0  0  0
   -2.8900    0.3081    1.8629 H   0  0  0  0  0  0  0  0  0  0  0  0
   -3.3635    1.3706    0.5235 H   0  0  0  0  0  0  0  0  0  0  0  0
   -1.9642    1.7694    1.5384 H   0  0  0  0  0  0  0  0  0  0  0  0
  1  2  1  0
  1  5  1  0
  1  6  1  0
  1  7  1  0
  2  3  1  0
  2  8  1  0
  2  9  1  0
  3  4  1  0
  3 10  1  0
  3 11  1  0
 12 13  2  0
 12 16  1  0
 12 17  1  0
 13 14  2  0
 14 15  1  0
 14 18  1  0
 15 19  1  0
 15 20  1  0
 15 21  1  0
M  RAD  1   4   2
M  END
>  <reaction>  (3) 
rmg_rxn_13887

>  <type>  (3) 
ts

>  <mol_properties>  (3) 
{"2": {"label": "*4", "atom_type": "Cs"}, "3": {"label": "*3", "atom_type": "O2s"}, "12": {"label": "*0", "atom_type": "Cdd"}, "13": {"label": "*1", "atom_type": "Cd"}, "17": {"label": "*2", "atom_type": "H0"}}

$$$$
