
     RDKit          3D

 10  9  0  0  0  0  0  0  0  0999 V2000
   -1.5492   -0.9718   -0.5442 C   0  0  0  0  0  0  0  0  0  0  0  0
   -0.5087   -0.2101   -0.3829 C   0  0  0  0  0  0  0  0  0  0  0  0
    0.5415    0.5550   -0.2124 C   0  0  0  0  0  0  0  0  0  0  0  0
    1.3502    0.6160    1.0041 C   0  0  0  0  0  0  0  0  0  0  0  0
   -2.5522   -0.6134   -0.3367 H   0  0  0  0  0  0  0  0  0  0  0  0
   -1.4506   -1.9933   -0.8985 H   0  0  0  0  0  0  0  0  0  0  0  0
    0.8671    1.1470   -1.0637 H   0  0  0  0  0  0  0  0  0  0  0  0
    2.2049   -0.0419    0.8652 H   0  0  0  0  0  0  0  0  0  0  0  0
    0.8739    0.2150    1.8953 H   0  0  0  0  0  0  0  0  0  0  0  0
    1.8293    1.5758    1.1844 H   0  0  0  0  0  0  0  0  0  0  0  0
  1  2  2  0
  1  5  1  0
  1  6  1  0
  2  3  2  0
  3  4  1  0
  3  7  1  0
  4  8  1  0
  4  9  1  0
  4 10  1  0
M  END
>  <reaction>  (1) 
rmg_rxn_14205

>  <type>  (1) 
r1h

>  <mol_properties>  (1) 
{"3": {"label": "donator", "atom_type": "Cs"}, "7": {"label": "d_hydrogen", "atom_type": "H0"}}

>  <electro_map>  (1) 
{"7": {"R": null, "A": null, "D": null}, "3": {"R": 1.0874601707618856, "A": null, "D": null}, "2": {"R": 1.462143833448393, "A": 107.64576262139339, "D": null}, "1": {"R": 1.3104273916431295, "A": 122.91548062179038, "D": 255.46394251626793}, "0": {"R": 1.0, "A": 90.0, "D": 180.0}, "4": {"R": 1.2996001050347321, "A": 90.0, "D": 180.0}, "5": {"R": 1.0851358981658004, "A": 121.5257222515842, "D": 93.16928580748764}, "6": {"R": 1.852893141961828, "A": 31.407571344456144, "D": 179.65010573543057}, "8": {"R": 3.906473138158048, "A": 76.52051818708317, "D": 345.1810320908457}, "9": {"R": 3.1023469408566915, "A": 73.70661086846056, "D": 82.02143475097502}}

$$$$

     RDKit          3D

 15 14  0  0  0  0  0  0  0  0999 V2000
   -0.8181    0.7112    0.9606 H   0  0  0  0  0  0  0  0  0  0  0  0
    0.8064    1.7451   -0.9530 C   0  0  0  0  0  0  0  0  0  0  0  0
    1.1502    0.8960    0.2661 C   0  0  0  0  0  0  0  0  0  0  0  0
    0.0145    0.0322    0.7374 C   0  0  0  0  0  0  0  0  0  0  0  0
   -0.4268   -0.8235   -0.2440 O   0  0  0  0  0  0  0  0  0  0  0  0
   -1.3902   -1.7508    0.1947 C   0  0  0  0  0  0  0  0  0  0  0  0
    1.6704    2.3278   -1.2749 H   0  0  0  0  0  0  0  0  0  0  0  0
    0.4879    1.1175   -1.7852 H   0  0  0  0  0  0  0  0  0  0  0  0
   -0.0034    2.4416   -0.7283 H   0  0  0  0  0  0  0  0  0  0  0  0
    1.4481    1.5371    1.1000 H   0  0  0  0  0  0  0  0  0  0  0  0
    2.0120    0.2577    0.0383 H   0  0  0  0  0  0  0  0  0  0  0  0
    0.1958   -0.4749    1.6933 H   0  0  0  0  0  0  0  0  0  0  0  0
   -0.9857   -2.3885    0.9901 H   0  0  0  0  0  0  0  0  0  0  0  0
   -1.6564   -2.3693   -0.6604 H   0  0  0  0  0  0  0  0  0  0  0  0
   -2.2869   -1.2435    0.5646 H   0  0  0  0  0  0  0  0  0  0  0  0
  1  4  1  0
  2  3  1  0
  2  7  1  0
  2  8  1  0
  2  9  1  0
  3  4  1  0
  3 10  1  0
  3 11  1  0
  4  5  1  0
  4 12  1  0
  5  6  1  0
  6 13  1  0
  6 14  1  0
  6 15  1  0
M  END
>  <reaction>  (2) 
rmg_rxn_14205

>  <type>  (2) 
r2h

>  <mol_properties>  (2) 
{"0": {"label": "a_hydrogen", "atom_type": "H0"}, "3": {"label": "acceptor", "atom_type": "Cs"}}

>  <electro_map>  (2) 
{"0": {"R": null, "A": null, "D": null}, "3": {"R": 1.097252279317926, "A": null, "D": null}, "4": {"R": 1.3747793367359675, "A": 106.66682082753714, "D": null}, "5": {"R": 1.4073278323180005, "A": 100.65283486804242, "D": 118.83067104921155}, "2": {"R": 3.6693631285337474, "A": 19.408726180767058, "D": 352.51917734167887}, "1": {"R": 1.5249341606561044, "A": 103.29815306655667, "D": 40.7758243400743}, "6": {"R": 1.0906753921890366, "A": 110.78499210712432, "D": 201.51775134731082}, "7": {"R": 1.7673129899777422, "A": 35.837784084910986, "D": 121.75029851528706}, "8": {"R": 1.763988918395062, "A": 59.95597480449204, "D": 37.469136772946925}, "9": {"R": 2.5035202038229505, "A": 90.2786032110487, "D": 293.77112763032966}, "10": {"R": 1.7555664632890282, "A": 90.4507821983791, "D": 2.668722230756149}, "11": {"R": 2.564036769145059, "A": 65.81729176930057, "D": 259.43918901461154}, "12": {"R": 2.3563000175368254, "A": 113.23958470885276, "D": 157.22768391320776}, "13": {"R": 1.7816721767248742, "A": 117.16015800794668, "D": 309.00151365778356}, "14": {"R": 1.7792432758117942, "A": 60.15918161299632, "D": 294.04865818269394}}

$$$$

     RDKit          3D

 24 22  0  0  0  0  0  0  0  0999 V2000
   -3.5305   -0.3489   -0.4356 C   0  0  0  0  0  0  0  0  0  0  0  0
   -2.4900    0.4129   -0.2743 C   0  0  0  0  0  0  0  0  0  0  0  0
   -1.4398    1.1779   -0.1039 C   0  0  0  0  0  0  0  0  0  0  0  0
   -0.6311    1.2390    1.1127 C   0  0  0  0  0  0  0  0  0  0  0  0
   -4.5335    0.0095   -0.2281 H   0  0  0  0  0  0  0  0  0  0  0  0
   -3.4319   -1.3703   -0.7899 H   0  0  0  0  0  0  0  0  0  0  0  0
   -1.1142    1.7700   -0.9551 H   0  0  0  0  0  0  0  0  0  0  0  0
    0.4301    0.4221    0.9401 H   0  0  0  0  0  0  0  0  0  0  0  0
   -1.1075    0.8379    2.0039 H   0  0  0  0  0  0  0  0  0  0  0  0
   -0.1520    2.1987    1.2929 H   0  0  0  0  0  0  0  0  0  0  0  0
    2.2608    1.2879   -1.0288 C   0  0  0  0  0  0  0  0  0  0  0  0
    2.6045    0.4389    0.1904 C   0  0  0  0  0  0  0  0  0  0  0  0
    1.4688   -0.4249    0.6616 C   0  0  0  0  0  3  0  0  0  0  0  0
    1.0275   -1.2806   -0.3197 O   0  0  0  0  0  0  0  0  0  0  0  0
    0.0641   -2.2080    0.1190 C   0  0  0  0  0  0  0  0  0  0  0  0
    3.1247    1.8707   -1.3506 H   0  0  0  0  0  0  0  0  0  0  0  0
    1.9422    0.6604   -1.8609 H   0  0  0  0  0  0  0  0  0  0  0  0
    1.4509    1.9845   -0.8040 H   0  0  0  0  0  0  0  0  0  0  0  0
    2.9024    1.0800    1.0243 H   0  0  0  0  0  0  0  0  0  0  0  0
    3.4663   -0.1994   -0.0375 H   0  0  0  0  0  0  0  0  0  0  0  0
    1.6502   -0.9321    1.6176 H   0  0  0  0  0  0  0  0  0  0  0  0
    0.4687   -2.8456    0.9144 H   0  0  0  0  0  0  0  0  0  0  0  0
   -0.2020   -2.8264   -0.7361 H   0  0  0  0  0  0  0  0  0  0  0  0
   -0.8326   -1.7006    0.4889 H   0  0  0  0  0  0  0  0  0  0  0  0
  1  2  2  0
  1  5  1  0
  1  6  1  0
  2  3  2  0
  3  4  1  0
  3  7  1  0
  4  8  1  0
  4  9  1  0
  4 10  1  0
 11 12  1  0
 11 16  1  0
 11 17  1  0
 11 18  1  0
 12 13  1  0
 12 19  1  0
 12 20  1  0
 13 14  1  0
 13 21  1  0
 14 15  1  0
 15 22  1  0
 15 23  1  0
 15 24  1  0
M  RAD  1  13   2
M  END
>  <reaction>  (3) 
rmg_rxn_14205

>  <type>  (3) 
ts

>  <mol_properties>  (3) 
{"2": {"label": "*0", "atom_type": "Cd"}, "3": {"label": "*1", "atom_type": "Cs"}, "7": {"label": "*2", "atom_type": "H0"}, "12": {"label": "*3", "atom_type": "Cs"}, "13": {"label": "*4", "atom_type": "O2s"}}

$$$$
