
     RDKit          3D

  9  8  0  0  0  0  0  0  0  0999 V2000
   -0.8722    0.2815    1.4993 C   0  0  0  0  0  0  0  0  0  0  0  0
   -0.3640   -0.6583    0.4425 C   0  0  0  0  0  0  0  0  0  0  0  0
    0.6087    0.1431   -0.8694 S   0  0  0  0  0  0  0  0  0  0  0  0
   -1.4925    1.0472    1.0347 H   0  0  0  0  0  0  0  0  0  0  0  0
   -0.0966    0.8690    1.9869 H   0  0  0  0  0  0  0  0  0  0  0  0
   -1.5442   -0.1877    2.2187 H   0  0  0  0  0  0  0  0  0  0  0  0
   -1.1801   -1.2056   -0.0281 H   0  0  0  0  0  0  0  0  0  0  0  0
    0.3126   -1.3994    0.8778 H   0  0  0  0  0  0  0  0  0  0  0  0
   -0.4481    0.6459   -1.5225 H   0  0  0  0  0  0  0  0  0  0  0  0
  1  2  1  0
  1  4  1  0
  1  5  1  0
  1  6  1  0
  2  3  1  0
  2  7  1  0
  2  8  1  0
  3  9  1  0
M  END
>  <reaction>  (1) 
rmg_rxn_2739

>  <type>  (1) 
r1h

>  <mol_properties>  (1) 
{"0": {"label": "donator", "atom_type": "Cs"}, "3": {"label": "d_hydrogen", "atom_type": "H0"}}

>  <electro_map>  (1) 
{"3": {"R": null, "A": null, "D": null}, "0": {"R": 1.0894320677770153, "A": null, "D": null}, "1": {"R": 1.502760730786961, "A": 109.39847246987543, "D": null}, "2": {"R": 1.8192371908798197, "A": 97.53376249434695, "D": 231.52969504932977}, "8": {"R": 1.3402352609078334, "A": 95.45522113247746, "D": 282.6007463140578}, "4": {"R": 3.5339983482249036, "A": 57.40752948383907, "D": 45.87562563288551}, "5": {"R": 1.8072213224266813, "A": 90.61815371253054, "D": 245.03492906340205}, "6": {"R": 2.4933235664312376, "A": 90.35219085799692, "D": 25.011705674069503}, "7": {"R": 1.7567870815538662, "A": 72.81179047515215, "D": 54.985843573711236}}

$$$$

     RDKit          3D

 15 14  0  0  0  0  0  0  0  0999 V2000
    1.4232   -0.1803    2.3658 H   0  0  0  0  0  0  0  0  0  0  0  0
    0.7810    0.6060    1.9724 C   0  0  0  0  0  0  0  0  0  0  0  0
   -0.4208   -0.0403    1.3411 C   0  0  0  0  0  0  0  0  0  0  0  0
   -0.0842   -1.0121   -0.1508 S   0  0  0  0  0  0  0  0  0  0  0  0
    0.4352    0.2658   -1.3252 C   0  0  0  0  0  0  0  0  0  0  0  0
   -0.6391    1.2763   -1.6910 C   0  0  0  0  0  0  0  0  0  0  0  0
    1.4239    1.1654    1.2961 H   0  0  0  0  0  0  0  0  0  0  0  0
    0.5425    1.1878    2.8623 H   0  0  0  0  0  0  0  0  0  0  0  0
   -1.1962    0.6964    1.1119 H   0  0  0  0  0  0  0  0  0  0  0  0
   -0.8763   -0.7554    2.0301 H   0  0  0  0  0  0  0  0  0  0  0  0
    1.3272    0.7695   -0.9471 H   0  0  0  0  0  0  0  0  0  0  0  0
    0.7438   -0.3009   -2.2053 H   0  0  0  0  0  0  0  0  0  0  0  0
   -0.9311    1.8790   -0.8298 H   0  0  0  0  0  0  0  0  0  0  0  0
   -0.2675    1.9595   -2.4576 H   0  0  0  0  0  0  0  0  0  0  0  0
   -1.5292    0.7766   -2.0744 H   0  0  0  0  0  0  0  0  0  0  0  0
  1  2  1  0
  2  3  1  0
  2  7  1  0
  2  8  1  0
  3  4  1  0
  3  9  1  0
  3 10  1  0
  4  5  1  0
  5  6  1  0
  5 11  1  0
  5 12  1  0
  6 13  1  0
  6 14  1  0
  6 15  1  0
M  END
>  <reaction>  (2) 
rmg_rxn_2739

>  <type>  (2) 
r2h

>  <mol_properties>  (2) 
{"0": {"label": "a_hydrogen", "atom_type": "H0"}, "1": {"label": "acceptor", "atom_type": "Cs"}}

>  <electro_map>  (2) 
{"0": {"R": null, "A": null, "D": null}, "1": {"R": 1.0888227376717685, "A": null, "D": null}, "2": {"R": 1.50351787357851, "A": 108.22862501951442, "D": null}, "3": {"R": 1.8120374418183962, "A": 101.6236324000996, "D": 121.73437453038119}, "4": {"R": 1.8116737323940215, "A": 102.04319308158887, "D": 293.2827395347318}, "5": {"R": 1.5195084204834286, "A": 114.98670029536827, "D": 295.23766739947894}, "6": {"R": 3.631981276711757, "A": 51.69438440850485, "D": 79.46853488911115}, "7": {"R": 1.797343516428953, "A": 115.9576298448197, "D": 233.8076093049092}, "8": {"R": 2.5156692595764416, "A": 74.34642924816757, "D": 13.795705579338149}, "9": {"R": 1.7473721528663528, "A": 70.73765016142059, "D": 107.19507918610742}, "10": {"R": 4.005506539952415, "A": 52.687396752561305, "D": 280.5408661997211}, "11": {"R": 1.7519086238861128, "A": 96.77876842566072, "D": 259.7317469782488}, "12": {"R": 3.073947763677971, "A": 55.026468452736246, "D": 68.76594265195618}, "13": {"R": 1.7597166471619656, "A": 54.05833431514643, "D": 105.24046028887123}, "14": {"R": 1.7714526795030072, "A": 60.04800995144138, "D": 66.32394297670334}}

$$$$

     RDKit          3D

 23 21  0  0  0  0  0  0  0  0999 V2000
    1.1503   -0.5085    2.5370 C   0  0  0  0  0  0  0  0  0  0  0  0
    1.6585   -1.4482    1.4802 C   0  0  0  0  0  0  0  0  0  0  0  0
    2.6313   -0.6468    0.1682 S   0  0  0  0  0  0  0  0  0  0  0  0
    0.3870    0.4338    1.9652 H   0  0  0  0  0  0  0  0  0  0  0  0
    1.9260    0.0791    3.0245 H   0  0  0  0  0  0  0  0  0  0  0  0
    0.4783   -0.9777    3.2563 H   0  0  0  0  0  0  0  0  0  0  0  0
    0.8424   -1.9955    1.0096 H   0  0  0  0  0  0  0  0  0  0  0  0
    2.3351   -2.1894    1.9154 H   0  0  0  0  0  0  0  0  0  0  0  0
    1.5744   -0.1440   -0.4849 H   0  0  0  0  0  0  0  0  0  0  0  0
   -0.4073    1.4062    1.4786 C   0  0  0  0  0  3  0  0  0  0  0  0
   -1.6091    0.7600    0.8473 C   0  0  0  0  0  0  0  0  0  0  0  0
   -1.2725   -0.2119   -0.6445 S   0  0  0  0  0  0  0  0  0  0  0  0
   -0.7531    1.0661   -1.8190 C   0  0  0  0  0  0  0  0  0  0  0  0
   -1.8274    2.0765   -2.1847 C   0  0  0  0  0  0  0  0  0  0  0  0
    0.2357    1.9656    0.8024 H   0  0  0  0  0  0  0  0  0  0  0  0
   -0.6458    1.9881    2.3686 H   0  0  0  0  0  0  0  0  0  0  0  0
   -2.3845    1.4967    0.6181 H   0  0  0  0  0  0  0  0  0  0  0  0
   -2.0645    0.0448    1.5364 H   0  0  0  0  0  0  0  0  0  0  0  0
    0.1389    1.5697   -1.4408 H   0  0  0  0  0  0  0  0  0  0  0  0
   -0.4445    0.4993   -2.6990 H   0  0  0  0  0  0  0  0  0  0  0  0
   -2.1193    2.6792   -1.3235 H   0  0  0  0  0  0  0  0  0  0  0  0
   -1.4558    2.7597   -2.9513 H   0  0  0  0  0  0  0  0  0  0  0  0
   -2.7175    1.5769   -2.5681 H   0  0  0  0  0  0  0  0  0  0  0  0
  1  2  1  0
  1  4  1  0
  1  5  1  0
  1  6  1  0
  2  3  1  0
  2  7  1  0
  2  8  1  0
  3  9  1  0
 10 11  1  0
 10 15  1  0
 10 16  1  0
 11 12  1  0
 11 17  1  0
 11 18  1  0
 12 13  1  0
 13 14  1  0
 13 19  1  0
 13 20  1  0
 14 21  1  0
 14 22  1  0
 14 23  1  0
M  RAD  1  10   2
M  END
>  <reaction>  (3) 
rmg_rxn_2739

>  <type>  (3) 
ts

>  <mol_properties>  (3) 
{"0": {"label": "*1", "atom_type": "Cs"}, "1": {"label": "*0", "atom_type": "Cs"}, "3": {"label": "*2", "atom_type": "H0"}, "9": {"label": "*3", "atom_type": "Cs"}, "10": {"label": "*4", "atom_type": "Cs"}}

$$$$
