
     RDKit          3D

 10  9  0  0  0  0  0  0  0  0999 V2000
    0.0446   -0.6182   -1.8035 C   0  0  0  0  0  0  0  0  0  0  0  0
    0.2181   -0.3117   -0.5526 C   0  0  0  0  0  0  0  0  0  0  0  0
    0.3801    0.0016    0.7104 C   0  0  0  0  0  0  0  0  0  0  0  0
   -0.5211    0.8494    1.4875 C   0  0  0  0  0  0  0  0  0  0  0  0
    0.4996   -0.0373   -2.5992 H   0  0  0  0  0  0  0  0  0  0  0  0
   -0.5606   -1.4716   -2.0949 H   0  0  0  0  0  0  0  0  0  0  0  0
    1.2199   -0.4513    1.2303 H   0  0  0  0  0  0  0  0  0  0  0  0
   -1.2086    0.1921    2.0142 H   0  0  0  0  0  0  0  0  0  0  0  0
   -1.1835    1.4804    0.9003 H   0  0  0  0  0  0  0  0  0  0  0  0
   -0.0486    1.3865    2.3065 H   0  0  0  0  0  0  0  0  0  0  0  0
  1  2  2  0
  1  5  1  0
  1  6  1  0
  2  3  2  0
  3  4  1  0
  3  7  1  0
  4  8  1  0
  4  9  1  0
  4 10  1  0
M  END
>  <reaction>  (1) 
rmg_rxn_14139

>  <type>  (1) 
r1h

>  <mol_properties>  (1) 
{"3": {"label": "donator", "atom_type": "Cs"}, "7": {"label": "d_hydrogen", "atom_type": "H0"}}

>  <electro_map>  (1) 
{"7": {"R": null, "A": null, "D": null}, "3": {"R": 1.0872569678586128, "A": null, "D": null}, "2": {"R": 1.4611183911292467, "A": 107.27049524339883, "D": null}, "1": {"R": 1.3112866833467602, "A": 122.3714920704372, "D": 254.72054917392813}, "0": {"R": 1.0, "A": 90.0, "D": 180.0}, "4": {"R": 1.2995646059416108, "A": 90.0, "D": 180.0}, "5": {"R": 1.0851740726465666, "A": 121.66783377823346, "D": 93.14850766826129}, "6": {"R": 1.8535532490295268, "A": 31.394944297563956, "D": 179.75504308009542}, "8": {"R": 3.9074475703318883, "A": 76.63352513636032, "D": 345.3716046599319}, "9": {"R": 3.10112646002141, "A": 73.67572366320228, "D": 81.83396767327972}}

$$$$

     RDKit          3D

 18 17  0  0  0  0  0  0  0  0999 V2000
    0.5804    2.1611    0.5720 H   0  0  0  0  0  0  0  0  0  0  0  0
    0.5986    1.2219    2.4275 C   0  0  0  0  0  0  0  0  0  0  0  0
    0.0004    1.3708    1.0632 C   0  0  0  0  0  0  0  0  0  0  0  0
    0.1973    0.2495    0.2963 O   0  0  0  0  0  0  0  0  0  0  0  0
   -0.4720    0.2700   -0.9502 C   0  0  0  0  0  0  0  0  0  0  0  0
   -0.0083   -0.9083   -1.7782 C   0  0  0  0  0  0  0  0  0  0  0  0
   -0.3371   -2.2559   -1.1501 C   0  0  0  0  0  0  0  0  0  0  0  0
    1.6636    0.9936    2.3501 H   0  0  0  0  0  0  0  0  0  0  0  0
    0.4828    2.1486    2.9911 H   0  0  0  0  0  0  0  0  0  0  0  0
    0.1195    0.4141    2.9875 H   0  0  0  0  0  0  0  0  0  0  0  0
   -1.0349    1.7315    1.0435 H   0  0  0  0  0  0  0  0  0  0  0  0
   -1.5571    0.2231   -0.7787 H   0  0  0  0  0  0  0  0  0  0  0  0
   -0.2505    1.2084   -1.4707 H   0  0  0  0  0  0  0  0  0  0  0  0
   -0.4773   -0.8279   -2.7631 H   0  0  0  0  0  0  0  0  0  0  0  0
    1.0704   -0.8144   -1.9293 H   0  0  0  0  0  0  0  0  0  0  0  0
   -1.4152   -2.3703   -1.0124 H   0  0  0  0  0  0  0  0  0  0  0  0
    0.0090   -3.0764   -1.7802 H   0  0  0  0  0  0  0  0  0  0  0  0
    0.1379   -2.3539   -0.1738 H   0  0  0  0  0  0  0  0  0  0  0  0
  1  3  1  0
  2  3  1  0
  2  8  1  0
  2  9  1  0
  2 10  1  0
  3  4  1  0
  3 11  1  0
  4  5  1  0
  5  6  1  0
  5 12  1  0
  5 13  1  0
  6  7  1  0
  6 14  1  0
  6 15  1  0
  7 16  1  0
  7 17  1  0
  7 18  1  0
M  END
>  <reaction>  (2) 
rmg_rxn_14139

>  <type>  (2) 
r2h

>  <mol_properties>  (2) 
{"0": {"label": "a_hydrogen", "atom_type": "H0"}, "2": {"label": "acceptor", "atom_type": "Cs"}}

>  <electro_map>  (2) 
{"0": {"R": null, "A": null, "D": null}, "2": {"R": 1.0964774321474562, "A": null, "D": null}, "3": {"R": 1.372629463051673, "A": 105.22583469396064, "D": null}, "4": {"R": 1.415030806512751, "A": 101.61198117637238, "D": 117.45870637536424}, "5": {"R": 1.513020273056408, "A": 109.0161318370162, "D": 171.37474327745804}, "1": {"R": 4.753350732422846, "A": 37.42875572152383, "D": 359.63774325973753}, "6": {"R": 5.076420612412929, "A": 17.4238110400545, "D": 125.26373015460354}, "7": {"R": 5.178204032004756, "A": 12.171525555346125, "D": 86.34539729390548}, "8": {"R": 1.7717069004522812, "A": 113.33632657385124, "D": 351.5410300830441}, "9": {"R": 1.7721511275814028, "A": 59.859983609038146, "D": 51.35648671549292}, "10": {"R": 2.6167542967326898, "A": 66.37006429025033, "D": 258.92717889222837}, "11": {"R": 2.4224276003328646, "A": 109.90568787517907, "D": 156.77037601468874}, "12": {"R": 1.7766979343723714, "A": 77.82856107218964, "D": 249.89852274435768}, "13": {"R": 2.4224276003328646, "A": 70.9020009971249, "D": 161.48608735737903}, "14": {"R": 1.7580718802771726, "A": 70.00643786218376, "D": 246.42969654942914}, "15": {"R": 3.0723646454759415, "A": 54.93010907003975, "D": 100.92413878937545}, "16": {"R": 1.7652879241296942, "A": 54.55852722764681, "D": 104.56497951539542}, "17": {"R": 1.7660549619293557, "A": 59.976141047481605, "D": 66.17411465541099}}

$$$$

     RDKit          3D

 27 25  0  0  0  0  0  0  0  0999 V2000
    1.3147    0.8196   -2.8362 C   0  0  0  0  0  0  0  0  0  0  0  0
    1.4883    1.1261   -1.5853 C   0  0  0  0  0  0  0  0  0  0  0  0
    1.6502    1.4393   -0.3223 C   0  0  0  0  0  0  0  0  0  0  0  0
    0.7490    2.2872    0.4548 C   0  0  0  0  0  0  0  0  0  0  0  0
    1.7698    1.4005   -3.6319 H   0  0  0  0  0  0  0  0  0  0  0  0
    0.7095   -0.0338   -3.1276 H   0  0  0  0  0  0  0  0  0  0  0  0
    2.4901    0.9865    0.1976 H   0  0  0  0  0  0  0  0  0  0  0  0
   -0.1050    1.4707    1.1091 H   0  0  0  0  0  0  0  0  0  0  0  0
    0.0866    2.9182   -0.1324 H   0  0  0  0  0  0  0  0  0  0  0  0
    1.2216    2.8243    1.2738 H   0  0  0  0  0  0  0  0  0  0  0  0
   -0.2285    0.3384    3.0846 C   0  0  0  0  0  0  0  0  0  0  0  0
   -0.8268    0.4873    1.7204 C   0  0  0  0  0  3  0  0  0  0  0  0
   -0.6299   -0.6340    0.9535 O   0  0  0  0  0  0  0  0  0  0  0  0
   -1.2992   -0.6135   -0.2930 C   0  0  0  0  0  0  0  0  0  0  0  0
   -0.8354   -1.7919   -1.1211 C   0  0  0  0  0  0  0  0  0  0  0  0
   -1.1643   -3.1395   -0.4929 C   0  0  0  0  0  0  0  0  0  0  0  0
    0.8364    0.1101    3.0073 H   0  0  0  0  0  0  0  0  0  0  0  0
   -0.3444    1.2650    3.6482 H   0  0  0  0  0  0  0  0  0  0  0  0
   -0.7077   -0.4695    3.6447 H   0  0  0  0  0  0  0  0  0  0  0  0
   -1.8621    0.8479    1.7007 H   0  0  0  0  0  0  0  0  0  0  0  0
   -2.3843   -0.6604   -0.1215 H   0  0  0  0  0  0  0  0  0  0  0  0
   -1.0777    0.3248   -0.8135 H   0  0  0  0  0  0  0  0  0  0  0  0
   -1.3045   -1.7115   -2.1059 H   0  0  0  0  0  0  0  0  0  0  0  0
    0.2433   -1.6979   -1.2721 H   0  0  0  0  0  0  0  0  0  0  0  0
   -2.2423   -3.2538   -0.3552 H   0  0  0  0  0  0  0  0  0  0  0  0
   -0.8182   -3.9600   -1.1230 H   0  0  0  0  0  0  0  0  0  0  0  0
   -0.6893   -3.2374    0.4833 H   0  0  0  0  0  0  0  0  0  0  0  0
  1  2  2  0
  1  5  1  0
  1  6  1  0
  2  3  2  0
  3  4  1  0
  3  7  1  0
  4  8  1  0
  4  9  1  0
  4 10  1  0
 11 12  1  0
 11 17  1  0
 11 18  1  0
 11 19  1  0
 12 13  1  0
 12 20  1  0
 13 14  1  0
 14 15  1  0
 14 21  1  0
 14 22  1  0
 15 16  1  0
 15 23  1  0
 15 24  1  0
 16 25  1  0
 16 26  1  0
 16 27  1  0
M  RAD  1  12   2
M  END
>  <reaction>  (3) 
rmg_rxn_14139

>  <type>  (3) 
ts

>  <mol_properties>  (3) 
{"2": {"label": "*0", "atom_type": "Cd"}, "3": {"label": "*1", "atom_type": "Cs"}, "7": {"label": "*2", "atom_type": "H0"}, "11": {"label": "*3", "atom_type": "Cs"}, "12": {"label": "*4", "atom_type": "O2s"}}

$$$$
