
     RDKit          3D

 10  9  0  0  0  0  0  0  0  0999 V2000
   -1.0070   -1.6158   -0.0681 C   0  0  0  0  0  0  0  0  0  0  0  0
   -0.4140   -0.4897    0.1964 C   0  0  0  0  0  0  0  0  0  0  0  0
    0.1925    0.6426    0.4511 C   0  0  0  0  0  0  0  0  0  0  0  0
    1.0715    1.3517   -0.4902 C   0  0  0  0  0  0  0  0  0  0  0  0
   -0.5144   -2.5664    0.1099 H   0  0  0  0  0  0  0  0  0  0  0  0
   -2.0145   -1.6425   -0.4693 H   0  0  0  0  0  0  0  0  0  0  0  0
    0.0818    1.0556    1.4500 H   0  0  0  0  0  0  0  0  0  0  0  0
    2.0905    1.0113   -0.3220 H   0  0  0  0  0  0  0  0  0  0  0  0
    1.1297    2.4250   -0.3263 H   0  0  0  0  0  0  0  0  0  0  0  0
    0.9037    1.1069   -1.5366 H   0  0  0  0  0  0  0  0  0  0  0  0
  1  2  2  0
  1  5  1  0
  1  6  1  0
  2  3  2  0
  3  4  1  0
  3  7  1  0
  4  8  1  0
  4  9  1  0
  4 10  1  0
M  END
>  <reaction>  (1) 
rmg_rxn_14188

>  <type>  (1) 
r1h

>  <mol_properties>  (1) 
{"3": {"label": "donator", "atom_type": "Cs"}, "7": {"label": "d_hydrogen", "atom_type": "H0"}}

>  <electro_map>  (1) 
{"7": {"R": null, "A": null, "D": null}, "3": {"R": 1.0874761206098866, "A": null, "D": null}, "2": {"R": 1.4701696798785768, "A": 108.07967973502114, "D": null}, "1": {"R": 1.3095049973371016, "A": 120.19937203248095, "D": 108.02647360961616}, "0": {"R": 1.0, "A": 90.0, "D": 180.0}, "4": {"R": 1.299905476434885, "A": 90.0, "D": 180.0}, "5": {"R": 1.085382827602279, "A": 121.11540250898324, "D": 87.09432288889188}, "6": {"R": 1.8545959347214167, "A": 31.275491849265073, "D": 179.6370499504705}, "8": {"R": 3.9189835182226878, "A": 75.95740906941246, "D": 345.3491988215696}, "9": {"R": 2.4755748620622566, "A": 104.82332449487578, "D": 103.52581419418381}}

$$$$

     RDKit          3D

  9  8  0  0  0  0  0  0  0  0999 V2000
    0.4724    1.1983   -0.0044 C   0  0  0  0  0  0  0  0  0  0  0  0
    0.1528   -0.1735    0.5100 C   0  0  0  0  0  0  0  0  0  0  0  0
   -0.4906   -0.9864   -0.4488 O   0  0  0  0  0  0  0  0  0  0  0  0
    0.9461    1.2222   -0.9831 H   0  0  0  0  0  0  0  0  0  0  0  0
    0.9300    1.8704    0.7191 H   0  0  0  0  0  0  0  0  0  0  0  0
    1.0740   -0.7023    0.7767 H   0  0  0  0  0  0  0  0  0  0  0  0
   -0.4474   -0.0993    1.4268 H   0  0  0  0  0  0  0  0  0  0  0  0
   -1.3677   -0.6274   -0.6080 H   0  0  0  0  0  0  0  0  0  0  0  0
   -0.5006    1.6534   -0.1770 H   0  0  0  0  0  0  0  0  0  0  0  0
  1  2  1  0
  1  4  1  0
  1  5  1  0
  1  9  1  0
  2  3  1  0
  2  6  1  0
  2  7  1  0
  3  8  1  0
M  END
>  <reaction>  (2) 
rmg_rxn_14188

>  <type>  (2) 
r2h

>  <mol_properties>  (2) 
{"0": {"label": "acceptor", "atom_type": "Cs"}, "8": {"label": "a_hydrogen", "atom_type": "H0"}}

>  <electro_map>  (2) 
{"8": {"R": null, "A": null, "D": null}, "0": {"R": 1.0879472207598109, "A": null, "D": null}, "1": {"R": 1.4995327062700106, "A": 104.2692024639645, "D": null}, "2": {"R": 1.412168889354654, "A": 98.02993098973201, "D": 237.7237911663915}, "7": {"R": 0.9609514561081631, "A": 108.25195135367905, "D": 291.9346880207078}, "3": {"R": 2.985832297938646, "A": 62.937357441972125, "D": 55.26304533292998}, "4": {"R": 1.8214497431424845, "A": 95.51910295329166, "D": 268.0587047219813}, "5": {"R": 2.577315602260143, "A": 70.4380906620728, "D": 54.42651917135198}, "6": {"R": 1.7609268743267206, "A": 67.55529982854817, "D": 246.5406709110635}}

$$$$

     RDKit          3D

 18 16  0  0  0  0  0  0  0  0999 V2000
    2.1551    0.7575   -0.0508 C   0  0  0  0  0  3  0  0  0  0  0  0
    1.8354   -0.6143    0.4636 C   0  0  0  0  0  0  0  0  0  0  0  0
    1.1920   -1.4273   -0.4952 O   0  0  0  0  0  0  0  0  0  0  0  0
    2.6288    0.7814   -1.0294 H   0  0  0  0  0  0  0  0  0  0  0  0
    2.6126    1.4296    0.6727 H   0  0  0  0  0  0  0  0  0  0  0  0
    2.7567   -1.1431    0.7303 H   0  0  0  0  0  0  0  0  0  0  0  0
    1.2352   -0.5402    1.3804 H   0  0  0  0  0  0  0  0  0  0  0  0
    0.3150   -1.0682   -0.6544 H   0  0  0  0  0  0  0  0  0  0  0  0
   -2.4002   -1.2137   -0.0531 C   0  0  0  0  0  0  0  0  0  0  0  0
   -1.8072   -0.0877    0.2114 C   0  0  0  0  0  0  0  0  0  0  0  0
   -1.2007    1.0447    0.4661 C   0  0  0  0  0  0  0  0  0  0  0  0
   -0.3217    1.7538   -0.4751 C   0  0  0  0  0  0  0  0  0  0  0  0
   -1.9076   -2.1643    0.1249 H   0  0  0  0  0  0  0  0  0  0  0  0
   -3.4077   -1.2404   -0.4543 H   0  0  0  0  0  0  0  0  0  0  0  0
   -1.3114    1.4577    1.4650 H   0  0  0  0  0  0  0  0  0  0  0  0
    0.8909    1.3488   -0.2751 H   0  0  0  0  0  0  0  0  0  0  0  0
   -0.2635    2.8271   -0.3113 H   0  0  0  0  0  0  0  0  0  0  0  0
   -0.4895    1.5090   -1.5215 H   0  0  0  0  0  0  0  0  0  0  0  0
  1  2  1  0
  1  4  1  0
  1  5  1  0
  2  3  1  0
  2  6  1  0
  2  7  1  0
  3  8  1  0
  9 10  2  0
  9 13  1  0
  9 14  1  0
 10 11  2  0
 11 12  1  0
 11 15  1  0
 12 16  1  0
 12 17  1  0
 12 18  1  0
M  RAD  1   1   2
M  END
>  <reaction>  (3) 
rmg_rxn_14188

>  <type>  (3) 
ts

>  <mol_properties>  (3) 
{"0": {"label": "*3", "atom_type": "Cs"}, "1": {"label": "*4", "atom_type": "Cs"}, "10": {"label": "*0", "atom_type": "Cd"}, "11": {"label": "*1", "atom_type": "Cs"}, "15": {"label": "*2", "atom_type": "H0"}}

$$$$
