
     RDKit          3D

 10  9  0  0  0  0  0  0  0  0999 V2000
   -0.8007    1.7242    0.1455 C   0  0  0  0  0  0  0  0  0  0  0  0
   -0.3675    0.5377   -0.1610 C   0  0  0  0  0  0  0  0  0  0  0  0
    0.0739   -0.6603   -0.4583 C   0  0  0  0  0  0  0  0  0  0  0  0
    0.9374   -1.4726    0.3975 C   0  0  0  0  0  0  0  0  0  0  0  0
   -0.2190    2.6136   -0.0774 H   0  0  0  0  0  0  0  0  0  0  0  0
   -1.7611    1.8705    0.6291 H   0  0  0  0  0  0  0  0  0  0  0  0
   -0.1717   -1.0495   -1.4429 H   0  0  0  0  0  0  0  0  0  0  0  0
    1.9800   -1.2450    0.1905 H   0  0  0  0  0  0  0  0  0  0  0  0
    0.8935   -2.5410    0.2028 H   0  0  0  0  0  0  0  0  0  0  0  0
    0.8880   -1.2405    1.4586 H   0  0  0  0  0  0  0  0  0  0  0  0
  1  2  2  0
  1  5  1  0
  1  6  1  0
  2  3  2  0
  3  4  1  0
  3  7  1  0
  4  8  1  0
  4  9  1  0
  4 10  1  0
M  END
>  <reaction>  (1) 
rmg_rxn_14144

>  <type>  (1) 
r1h

>  <mol_properties>  (1) 
{"3": {"label": "donator", "atom_type": "Cs"}, "7": {"label": "d_hydrogen", "atom_type": "H0"}}

>  <electro_map>  (1) 
{"7": {"R": null, "A": null, "D": null}, "3": {"R": 1.0870781266563088, "A": null, "D": null}, "2": {"R": 1.4621373109953915, "A": 109.78971052822332, "D": null}, "1": {"R": 1.3108706124193104, "A": 119.39054595404122, "D": 110.00634808789454}, "0": {"R": 1.0, "A": 90.0, "D": 180.0}, "4": {"R": 1.299855587347446, "A": 90.0, "D": 180.0}, "5": {"R": 1.085840015015107, "A": 121.41168940259186, "D": 86.88049221387891}, "6": {"R": 1.8518976479625036, "A": 31.451725673568415, "D": 179.62375769177368}, "8": {"R": 3.9173994934393312, "A": 76.08073855372093, "D": 345.2703649005328}, "9": {"R": 2.4633126559011256, "A": 105.86728917374502, "D": 102.59219311615159}}

$$$$

     RDKit          3D

 14 14  0  0  0  0  0  0  0  0999 V2000
   -1.0706   -1.5337    0.1722 H   0  0  0  0  0  0  0  0  0  0  0  0
   -0.0079   -1.3110    0.1102 C   0  0  0  0  0  0  0  0  0  0  0  0
    0.2665   -0.7460   -1.1107 O   0  0  0  0  0  0  0  0  0  0  0  0
   -0.2986    0.5491   -1.2825 C   0  0  0  0  0  0  0  0  0  0  0  0
    0.0745    1.4501   -0.1176 C   0  0  0  0  0  0  0  0  0  0  0  0
   -0.2923    0.7432    1.1757 C   0  0  0  0  0  0  0  0  0  0  0  0
    0.3010   -0.5480    1.2108 O   0  0  0  0  0  0  0  0  0  0  0  0
    0.4953   -2.2723    0.1835 H   0  0  0  0  0  0  0  0  0  0  0  0
    0.0903    0.9227   -2.2282 H   0  0  0  0  0  0  0  0  0  0  0  0
   -1.3879    0.4616   -1.3593 H   0  0  0  0  0  0  0  0  0  0  0  0
    1.1473    1.6535   -0.1334 H   0  0  0  0  0  0  0  0  0  0  0  0
   -0.4566    2.4013   -0.1932 H   0  0  0  0  0  0  0  0  0  0  0  0
   -1.3822    0.6464    1.2606 H   0  0  0  0  0  0  0  0  0  0  0  0
    0.0791    1.2718    2.0518 H   0  0  0  0  0  0  0  0  0  0  0  0
  1  2  1  0
  2  3  1  0
  2  7  1  0
  2  8  1  0
  3  4  1  0
  4  5  1  0
  4  9  1  0
  4 10  1  0
  5  6  1  0
  5 11  1  0
  5 12  1  0
  6  7  1  0
  6 13  1  0
  6 14  1  0
M  END
>  <reaction>  (2) 
rmg_rxn_14144

>  <type>  (2) 
r2h

>  <mol_properties>  (2) 
{"0": {"label": "a_hydrogen", "atom_type": "H0"}, "1": {"label": "acceptor", "atom_type": "Cs"}}

>  <electro_map>  (2) 
{"0": {"R": null, "A": null, "D": null}, "1": {"R": 1.0875609632921517, "A": null, "D": null}, "2": {"R": 1.3730411882133524, "A": 109.28495507234179, "D": null}, "6": {"R": 2.3302276128506523, "A": 53.7181875814577, "D": 325.5604457006914}, "3": {"R": 2.789289192796223, "A": 30.64422069996071, "D": 227.00850978133315}, "5": {"R": 2.465908588302299, "A": 30.60119563034783, "D": 178.4582561113554}, "4": {"R": 1.5189050791492311, "A": 35.74788690919535, "D": 130.65590004594114}, "7": {"R": 3.7582807031119683, "A": 59.85311382083048, "D": 323.36114784034}, "8": {"R": 4.023545110059728, "A": 32.239009571607774, "D": 159.08606716236798}, "9": {"R": 1.7755942313315076, "A": 65.43210645101871, "D": 287.8133297368018}, "10": {"R": 3.0579025637345665, "A": 53.46848263561399, "D": 69.01446362938465}, "11": {"R": 1.7706397754875423, "A": 53.137042637543644, "D": 114.90833757204547}, "12": {"R": 2.459641469554545, "A": 91.12018445178207, "D": 64.73578474402045}, "13": {"R": 1.7755942313315076, "A": 72.68451260674831, "D": 50.592985087094455}}

$$$$

     RDKit          3D

 23 22  0  0  0  0  0  0  0  0999 V2000
   -3.0116    1.4648    0.1739 C   0  0  0  0  0  0  0  0  0  0  0  0
   -2.5783    0.2782   -0.1327 C   0  0  0  0  0  0  0  0  0  0  0  0
   -2.1370   -0.9198   -0.4299 C   0  0  0  0  0  0  0  0  0  0  0  0
   -1.2735   -1.7321    0.4259 C   0  0  0  0  0  0  0  0  0  0  0  0
   -2.4299    2.3542   -0.0491 H   0  0  0  0  0  0  0  0  0  0  0  0
   -3.9720    1.6111    0.6575 H   0  0  0  0  0  0  0  0  0  0  0  0
   -2.3826   -1.3090   -1.4145 H   0  0  0  0  0  0  0  0  0  0  0  0
    0.0279   -1.4479    0.1675 H   0  0  0  0  0  0  0  0  0  0  0  0
   -1.3174   -2.8005    0.2312 H   0  0  0  0  0  0  0  0  0  0  0  0
   -1.3229   -1.5000    1.4869 H   0  0  0  0  0  0  0  0  0  0  0  0
    1.3694   -1.1667    0.0892 C   0  0  0  0  0  3  0  0  0  0  0  0
    1.6438   -0.6017   -1.1318 O   0  0  0  0  0  0  0  0  0  0  0  0
    1.0787    0.6933   -1.3036 C   0  0  0  0  0  0  0  0  0  0  0  0
    1.4518    1.5944   -0.1386 C   0  0  0  0  0  0  0  0  0  0  0  0
    1.0850    0.8874    1.1547 C   0  0  0  0  0  0  0  0  0  0  0  0
    1.6782   -0.4038    1.1898 O   0  0  0  0  0  0  0  0  0  0  0  0
    1.8726   -2.1281    0.1625 H   0  0  0  0  0  0  0  0  0  0  0  0
    1.4676    1.0670   -2.2492 H   0  0  0  0  0  0  0  0  0  0  0  0
   -0.0106    0.6058   -1.3803 H   0  0  0  0  0  0  0  0  0  0  0  0
    2.5246    1.7977   -0.1544 H   0  0  0  0  0  0  0  0  0  0  0  0
    0.9207    2.5455   -0.2143 H   0  0  0  0  0  0  0  0  0  0  0  0
   -0.0049    0.7906    1.2395 H   0  0  0  0  0  0  0  0  0  0  0  0
    1.4564    1.4161    2.0308 H   0  0  0  0  0  0  0  0  0  0  0  0
  1  2  2  0
  1  5  1  0
  1  6  1  0
  2  3  2  0
  3  4  1  0
  3  7  1  0
  4  8  1  0
  4  9  1  0
  4 10  1  0
 11 12  1  0
 11 16  1  0
 11 17  1  0
 12 13  1  0
 13 14  1  0
 13 18  1  0
 13 19  1  0
 14 15  1  0
 14 20  1  0
 14 21  1  0
 15 16  1  0
 15 22  1  0
 15 23  1  0
M  RAD  1  11   2
M  END
>  <reaction>  (3) 
rmg_rxn_14144

>  <type>  (3) 
ts

>  <mol_properties>  (3) 
{"2": {"label": "*0", "atom_type": "Cd"}, "3": {"label": "*1", "atom_type": "Cs"}, "7": {"label": "*2", "atom_type": "H0"}, "10": {"label": "*3", "atom_type": "Cs"}, "11": {"label": "*4", "atom_type": "O2s"}}

$$$$
