
     RDKit          3D

 10  9  0  0  0  0  0  0  0  0999 V2000
   -0.8619   -1.6552    0.3065 C   0  0  0  0  0  0  0  0  0  0  0  0
   -0.2450   -0.6232   -0.1284 C   0  0  0  0  0  0  0  0  0  0  0  0
    0.2882    0.4938   -0.5705 C   0  0  0  0  0  0  0  0  0  0  0  0
    0.7782    1.6044    0.3097 C   0  0  0  0  0  0  0  0  0  0  0  0
   -1.9320   -1.5623    0.4204 H   0  0  0  0  0  0  0  0  0  0  0  0
   -0.4786   -2.6239    0.5920 H   0  0  0  0  0  0  0  0  0  0  0  0
    0.3963    0.6182   -1.6440 H   0  0  0  0  0  0  0  0  0  0  0  0
    0.2534    2.5358    0.0813 H   0  0  0  0  0  0  0  0  0  0  0  0
    1.8435    1.7873    0.1485 H   0  0  0  0  0  0  0  0  0  0  0  0
    0.6241    1.3706    1.3622 H   0  0  0  0  0  0  0  0  0  0  0  0
  1  2  2  0
  1  5  1  0
  1  6  1  0
  2  3  2  0
  3  4  1  0
  3  7  1  0
  4  8  1  0
  4  9  1  0
  4 10  1  0
M  END
>  <reaction>  (1) 
rmg_rxn_14045

>  <type>  (1) 
r1h

>  <mol_properties>  (1) 
{"0": {"label": "donator", "atom_type": "Cd"}, "4": {"label": "d_hydrogen", "atom_type": "H0"}}

>  <electro_map>  (1) 
{"4": {"R": null, "A": null, "D": null}, "0": {"R": 1.0801499741232745, "A": null, "D": null}, "1": {"R": 1.2785440107878032, "A": 116.3867133485461, "D": null}, "2": {"R": 1.3142553126775807, "A": 146.15009196432183, "D": 180.75684168609214}, "3": {"R": 1.4994342849796833, "A": 124.37731328283944, "D": 84.82514066850237}, "5": {"R": 4.4201300854764645, "A": 40.18173317898796, "D": 13.210329264810401}, "6": {"R": 4.034340789909903, "A": 30.026732580406993, "D": 6.700172801310499}, "7": {"R": 2.5834377226708884, "A": 102.37895820237064, "D": 342.46970915145323}, "8": {"R": 1.758701964090415, "A": 70.10151507935032, "D": 84.11429651413502}, "9": {"R": 1.7702070213200174, "A": 60.238810760715545, "D": 259.24767652167947}}

$$$$

     RDKit          3D

 12 11  0  0  0  0  0  0  0  0999 V2000
   -1.3837   -0.1675   -1.0156 C   0  0  0  0  0  0  0  0  0  0  0  0
   -0.4960    0.7463    0.2577 S   0  0  0  0  0  0  0  0  0  0  0  0
    1.1712    0.0409    0.0673 C   0  0  0  0  0  0  0  0  0  0  0  0
    1.2783   -1.3963    0.4667 C   0  0  0  0  0  0  0  0  0  0  0  0
   -1.4465   -1.2296   -0.7820 H   0  0  0  0  0  0  0  0  0  0  0  0
   -0.9148   -0.0300   -1.9907 H   0  0  0  0  0  0  0  0  0  0  0  0
   -2.3927    0.2409   -1.0521 H   0  0  0  0  0  0  0  0  0  0  0  0
    1.4970    0.1909   -0.9637 H   0  0  0  0  0  0  0  0  0  0  0  0
    1.8053    0.6640    0.7005 H   0  0  0  0  0  0  0  0  0  0  0  0
    0.8179   -2.1127   -0.2097 H   0  0  0  0  0  0  0  0  0  0  0  0
    1.0625   -1.6028    1.5122 H   0  0  0  0  0  0  0  0  0  0  0  0
    2.3402   -1.6099    0.3704 H   0  0  0  0  0  0  0  0  0  0  0  0
  1  2  1  0
  1  5  1  0
  1  6  1  0
  1  7  1  0
  2  3  1  0
  3  4  1  0
  3  8  1  0
  3  9  1  0
  4 10  1  0
  4 11  1  0
  4 12  1  0
M  END
>  <reaction>  (2) 
rmg_rxn_14045

>  <type>  (2) 
r2h

>  <mol_properties>  (2) 
{"3": {"label": "acceptor", "atom_type": "Cs"}, "11": {"label": "a_hydrogen", "atom_type": "H0"}}

>  <electro_map>  (2) 
{"11": {"R": null, "A": null, "D": null}, "3": {"R": 1.0874427407635734, "A": null, "D": null}, "2": {"R": 1.4955491949909443, "A": 103.59446734915092, "D": null}, "1": {"R": 1.820247599873259, "A": 145.158157124853, "D": 7.6785821807928505}, "0": {"R": 1.8011753536431518, "A": 100.41800454516611, "D": 292.1075494143481}, "4": {"R": 1.089313938882985, "A": 111.80951315445053, "D": 66.10854646267389}, "5": {"R": 1.7839718819271204, "A": 35.10455304866967, "D": 236.48207945365067}, "6": {"R": 1.7715896188245335, "A": 59.68596363323787, "D": 323.744628746999}, "7": {"R": 3.8910733006812417, "A": 34.52366945511703, "D": 73.1334915112511}, "8": {"R": 1.757480098237267, "A": 101.15232270035581, "D": 178.4638851692078}, "9": {"R": 3.0844280945634357, "A": 54.692595863862614, "D": 75.28561083712738}, "10": {"R": 1.8124080503094264, "A": 54.769601390864715, "D": 182.97425552307533}}

$$$$

     RDKit          3D

 21 19  0  0  0  0  0  0  0  0999 V2000
   -3.3393   -0.0953   -0.9936 C   0  0  0  0  0  0  0  0  0  0  0  0
   -2.4517    0.8185    0.2796 S   0  0  0  0  0  0  0  0  0  0  0  0
   -0.7845    0.1131    0.0892 C   0  0  0  0  0  0  0  0  0  0  0  0
   -0.6774   -1.3241    0.4887 C   0  0  0  0  0  3  0  0  0  0  0  0
   -3.4021   -1.1574   -0.7601 H   0  0  0  0  0  0  0  0  0  0  0  0
   -2.8705    0.0422   -1.9687 H   0  0  0  0  0  0  0  0  0  0  0  0
   -4.3484    0.3131   -1.0301 H   0  0  0  0  0  0  0  0  0  0  0  0
   -0.4586    0.2630   -0.9418 H   0  0  0  0  0  0  0  0  0  0  0  0
   -0.1503    0.7361    0.7225 H   0  0  0  0  0  0  0  0  0  0  0  0
   -1.1378   -2.0406   -0.1877 H   0  0  0  0  0  0  0  0  0  0  0  0
   -0.8932   -1.5306    1.5342 H   0  0  0  0  0  0  0  0  0  0  0  0
    1.9556   -1.7058    0.2295 C   0  0  0  0  0  0  0  0  0  0  0  0
    2.5725   -0.6738   -0.2054 C   0  0  0  0  0  0  0  0  0  0  0  0
    3.1056    0.4432   -0.6475 C   0  0  0  0  0  0  0  0  0  0  0  0
    3.5956    1.5538    0.2326 C   0  0  0  0  0  0  0  0  0  0  0  0
    0.6611   -1.5934    0.3672 H   0  0  0  0  0  0  0  0  0  0  0  0
    2.3389   -2.6745    0.5149 H   0  0  0  0  0  0  0  0  0  0  0  0
    3.2137    0.5676   -1.7210 H   0  0  0  0  0  0  0  0  0  0  0  0
    3.0709    2.4852    0.0042 H   0  0  0  0  0  0  0  0  0  0  0  0
    4.6609    1.7367    0.0715 H   0  0  0  0  0  0  0  0  0  0  0  0
    3.4416    1.3200    1.2852 H   0  0  0  0  0  0  0  0  0  0  0  0
  1  2  1  0
  1  5  1  0
  1  6  1  0
  1  7  1  0
  2  3  1  0
  3  4  1  0
  3  8  1  0
  3  9  1  0
  4 10  1  0
  4 11  1  0
 12 13  2  0
 12 16  1  0
 12 17  1  0
 13 14  2  0
 14 15  1  0
 14 18  1  0
 15 19  1  0
 15 20  1  0
 15 21  1  0
M  RAD  1   4   2
M  END
>  <reaction>  (3) 
rmg_rxn_14045

>  <type>  (3) 
ts

>  <mol_properties>  (3) 
{"2": {"label": "*4", "atom_type": "Cs"}, "3": {"label": "*3", "atom_type": "Cs"}, "11": {"label": "*1", "atom_type": "Cd"}, "12": {"label": "*0", "atom_type": "Cdd"}, "15": {"label": "*2", "atom_type": "H0"}}

$$$$
