
     RDKit          3D

 10  9  0  0  0  0  0  0  0  0999 V2000
   -1.0079   -1.6406    0.4012 C   0  0  0  0  0  0  0  0  0  0  0  0
   -0.2338   -0.6248    0.0835 C   0  0  0  0  0  0  0  0  0  0  0  0
    0.5806    0.2967   -0.2546 C   0  0  0  0  0  0  0  0  0  0  0  0
    0.5890    1.7819   -0.2083 C   0  0  0  0  0  0  0  0  0  0  0  0
   -1.7142   -2.0507   -0.3106 H   0  0  0  0  0  0  0  0  0  0  0  0
   -0.9760   -2.0817    1.3903 H   0  0  0  0  0  0  0  0  0  0  0  0
    1.5309   -0.0681   -0.6444 H   0  0  0  0  0  0  0  0  0  0  0  0
   -0.2886    2.1700    0.3108 H   0  0  0  0  0  0  0  0  0  0  0  0
    0.6061    2.1973   -1.2182 H   0  0  0  0  0  0  0  0  0  0  0  0
    1.4864    2.1401    0.3014 H   0  0  0  0  0  0  0  0  0  0  0  0
  1  2  2  0
  1  5  1  0
  1  6  1  0
  2  3  2  0
  3  4  1  0
  3  7  1  0
  4  8  1  0
  4  9  1  0
  4 10  1  0
M  END
>  <reaction>  (1) 
rmg_rxn_13907

>  <type>  (1) 
r1h

>  <mol_properties>  (1) 
{"2": {"label": "donator", "atom_type": "Cd"}, "6": {"label": "d_hydrogen", "atom_type": "H0"}}

>  <electro_map>  (1) 
{"6": {"R": null, "A": null, "D": null}, "2": {"R": 1.0899999909882152, "A": null, "D": null}, "1": {"R": 1.275489324282027, "A": 114.18104964943426, "D": null}, "0": {"R": 1.3160569268004587, "A": 145.7396738856756, "D": 179.71118436353692}, "3": {"R": 3.8255978085966706, "A": 12.964418179581441, "D": 179.27127640137414}, "4": {"R": 4.47250976322616, "A": 12.05904551013872, "D": 97.06483762505003}, "5": {"R": 1.8544360047357795, "A": 77.78216229936193, "D": 8.577689054945658}, "7": {"R": 4.4401037609588645, "A": 79.7833546462695, "D": 14.252703447774644}, "8": {"R": 1.7718411289321447, "A": 107.62139470779202, "D": 304.93275056200537}, "9": {"R": 1.7570797897832628, "A": 60.4071926926541, "D": 270.99448822355924}}

$$$$

     RDKit          3D

 12 11  0  0  0  0  0  0  0  0999 V2000
    0.1273    0.1057    1.6800 C   0  0  0  0  0  0  0  0  0  0  0  0
    0.6030    0.7266    0.0561 S   0  0  0  0  0  0  0  0  0  0  0  0
   -0.5920   -0.0588   -0.9777 C   0  0  0  0  0  0  0  0  0  0  0  0
   -0.7580   -1.5549   -0.9158 C   0  0  0  0  0  0  0  0  0  0  0  0
    0.3591   -0.9522    1.7916 H   0  0  0  0  0  0  0  0  0  0  0  0
   -0.9369    0.2727    1.8501 H   0  0  0  0  0  0  0  0  0  0  0  0
    0.7009    0.6711    2.4126 H   0  0  0  0  0  0  0  0  0  0  0  0
   -0.4708    0.3348   -1.9859 H   0  0  0  0  0  0  0  0  0  0  0  0
    0.1699   -2.0699   -1.1790 H   0  0  0  0  0  0  0  0  0  0  0  0
   -1.5379   -1.8704   -1.6107 H   0  0  0  0  0  0  0  0  0  0  0  0
   -1.0601   -1.8812    0.0805 H   0  0  0  0  0  0  0  0  0  0  0  0
   -1.5685    0.3124   -0.6697 H   0  0  0  0  0  0  0  0  0  0  0  0
  1  2  1  0
  1  5  1  0
  1  6  1  0
  1  7  1  0
  2  3  1  0
  3  4  1  0
  3  8  1  0
  3 12  1  0
  4  9  1  0
  4 10  1  0
  4 11  1  0
M  END
>  <reaction>  (2) 
rmg_rxn_13907

>  <type>  (2) 
r2h

>  <mol_properties>  (2) 
{"2": {"label": "acceptor", "atom_type": "Cs"}, "11": {"label": "a_hydrogen", "atom_type": "H0"}}

>  <electro_map>  (2) 
{"11": {"R": null, "A": null, "D": null}, "2": {"R": 1.089115843157462, "A": null, "D": null}, "1": {"R": 1.7646060129965317, "A": 106.8442710648974, "D": null}, "0": {"R": 1.8024477581014142, "A": 88.47815335142562, "D": 240.6481827895614}, "3": {"R": 3.2062032655280626, "A": 61.436650155034684, "D": 22.054074838825244}, "4": {"R": 2.9901752129700117, "A": 19.846519893379128, "D": 131.6072356592759}, "5": {"R": 1.7842330715835024, "A": 84.06973309868043, "D": 34.369377921391596}, "6": {"R": 1.776997626840255, "A": 59.65750919106358, "D": 223.37536821083387}, "7": {"R": 4.564364326733058, "A": 56.06911345808413, "D": 75.6325078186316}, "8": {"R": 2.6161085039670677, "A": 72.99892538428965, "D": 273.3178930319246}, "9": {"R": 1.7728223363911768, "A": 65.51230041242198, "D": 113.8922272224781}, "10": {"R": 1.7573752982773376, "A": 60.202740869467476, "D": 258.0807432583526}}

$$$$

     RDKit          3D

 21 19  0  0  0  0  0  0  0  0999 V2000
    1.6085   -0.1170    1.5735 C   0  0  0  0  0  0  0  0  0  0  0  0
    2.0842    0.5039   -0.0504 S   0  0  0  0  0  0  0  0  0  0  0  0
    0.8892   -0.2816   -1.0842 C   0  0  0  0  0  3  0  0  0  0  0  0
    0.7232   -1.7777   -1.0223 C   0  0  0  0  0  0  0  0  0  0  0  0
    1.8403   -1.1750    1.6851 H   0  0  0  0  0  0  0  0  0  0  0  0
    0.5443    0.0499    1.7436 H   0  0  0  0  0  0  0  0  0  0  0  0
    2.1821    0.4484    2.3061 H   0  0  0  0  0  0  0  0  0  0  0  0
    1.0104    0.1120   -2.0924 H   0  0  0  0  0  0  0  0  0  0  0  0
    1.6512   -2.2926   -1.2855 H   0  0  0  0  0  0  0  0  0  0  0  0
   -0.0567   -2.0931   -1.7172 H   0  0  0  0  0  0  0  0  0  0  0  0
    0.4211   -2.1039   -0.0261 H   0  0  0  0  0  0  0  0  0  0  0  0
   -3.0678   -1.3141    0.4291 C   0  0  0  0  0  0  0  0  0  0  0  0
   -2.2937   -0.2983    0.1113 C   0  0  0  0  0  0  0  0  0  0  0  0
   -1.4793    0.6232   -0.2268 C   0  0  0  0  0  0  0  0  0  0  0  0
   -1.4709    2.1084   -0.1805 C   0  0  0  0  0  0  0  0  0  0  0  0
   -3.7740   -1.7242   -0.2828 H   0  0  0  0  0  0  0  0  0  0  0  0
   -3.0359   -1.7551    1.4181 H   0  0  0  0  0  0  0  0  0  0  0  0
   -0.3139    0.1759   -0.7048 H   0  0  0  0  0  0  0  0  0  0  0  0
   -2.3485    2.4965    0.3387 H   0  0  0  0  0  0  0  0  0  0  0  0
   -1.4537    2.5238   -1.1904 H   0  0  0  0  0  0  0  0  0  0  0  0
   -0.5734    2.4666    0.3292 H   0  0  0  0  0  0  0  0  0  0  0  0
  1  2  1  0
  1  5  1  0
  1  6  1  0
  1  7  1  0
  2  3  1  0
  3  4  1  0
  3  8  1  0
  4  9  1  0
  4 10  1  0
  4 11  1  0
 12 13  2  0
 12 16  1  0
 12 17  1  0
 13 14  2  0
 14 15  1  0
 14 18  1  0
 15 19  1  0
 15 20  1  0
 15 21  1  0
M  RAD  1   3   2
M  END
>  <reaction>  (3) 
rmg_rxn_13907

>  <type>  (3) 
ts

>  <mol_properties>  (3) 
{"1": {"label": "*4", "atom_type": "S2s"}, "2": {"label": "*3", "atom_type": "Cs"}, "12": {"label": "*0", "atom_type": "Cdd"}, "13": {"label": "*1", "atom_type": "Cd"}, "17": {"label": "*2", "atom_type": "H0"}}

$$$$
