
     RDKit          3D

 10  9  0  0  0  0  0  0  0  0999 V2000
    0.1272    1.2439    1.4215 C   0  0  0  0  0  0  0  0  0  0  0  0
    0.0576    0.2358    0.6341 C   0  0  0  0  0  0  0  0  0  0  0  0
   -0.1042   -0.7783   -0.1819 C   0  0  0  0  0  0  0  0  0  0  0  0
   -0.0512   -0.6817   -1.6777 C   0  0  0  0  0  0  0  0  0  0  0  0
   -0.7920    1.7521    1.6768 H   0  0  0  0  0  0  0  0  0  0  0  0
    1.0002    1.6768    1.8894 H   0  0  0  0  0  0  0  0  0  0  0  0
   -0.2719   -1.7601    0.2518 H   0  0  0  0  0  0  0  0  0  0  0  0
    0.7491   -1.3087   -2.0786 H   0  0  0  0  0  0  0  0  0  0  0  0
    0.1199    0.3444   -2.0005 H   0  0  0  0  0  0  0  0  0  0  0  0
   -0.9874   -1.0322   -2.1194 H   0  0  0  0  0  0  0  0  0  0  0  0
  1  2  2  0
  1  5  1  0
  1  6  1  0
  2  3  2  0
  3  4  1  0
  3  7  1  0
  4  8  1  0
  4  9  1  0
  4 10  1  0
M  END
>  <reaction>  (1) 
rmg_rxn_14122

>  <type>  (1) 
r1h

>  <mol_properties>  (1) 
{"0": {"label": "donator", "atom_type": "Cd"}, "4": {"label": "d_hydrogen", "atom_type": "H0"}}

>  <electro_map>  (1) 
{"4": {"R": null, "A": null, "D": null}, "0": {"R": 1.080922243573617, "A": null, "D": null}, "1": {"R": 1.281096705128434, "A": 117.9646003114225, "D": null}, "2": {"R": 1.3116661329320833, "A": 147.8554798410967, "D": 180.65517790678976}, "3": {"R": 1.4998738712688364, "A": 124.48579003848076, "D": 85.66469692106824}, "5": {"R": 4.40362102457191, "A": 40.103350885022664, "D": 14.36092707645209}, "6": {"R": 4.013951765636387, "A": 30.150706050165876, "D": 7.302174932625618}, "7": {"R": 2.58401426959748, "A": 95.34447617750837, "D": 22.475888819576042}, "8": {"R": 1.7704998001447563, "A": 89.016255898314, "D": 314.93938298678813}, "9": {"R": 1.7706625987005231, "A": 59.5645354012015, "D": 292.5799706765055}}

$$$$

     RDKit          3D

  5  4  0  0  0  0  0  0  0  0999 V2000
   -0.0332    0.0191    0.0098 C   0  0  0  0  0  0  0  0  0  0  0  0
   -0.1034   -0.0696    1.0890 H   0  0  0  0  0  0  0  0  0  0  0  0
   -0.7674   -0.5616   -0.5392 H   0  0  0  0  0  0  0  0  0  0  0  0
    0.1035    1.0327   -0.3528 H   0  0  0  0  0  0  0  0  0  0  0  0
    0.8948   -0.4841   -0.2416 H   0  0  0  0  0  0  0  0  0  0  0  0
  1  2  1  0
  1  3  1  0
  1  4  1  0
  1  5  1  0
M  END
>  <reaction>  (2) 
rmg_rxn_14122

>  <type>  (2) 
r2h

>  <mol_properties>  (2) 
{"0": {"label": "acceptor", "atom_type": "Cs"}, "4": {"label": "a_hydrogen", "atom_type": "H0"}}

>  <electro_map>  (2) 
{"4": {"R": null, "A": null, "D": null}, "0": {"R": 1.0851415005165868, "A": null, "D": null}, "1": {"R": 1.0851415005165868, "A": 104.3505596080079, "D": null}, "2": {"R": 1.8259879116481323, "A": 56.93783627053254, "D": 37.01619896828815}, "3": {"R": 1.826172919451573, "A": 60.02067669284241, "D": 334.0606791571715}}

$$$$

     RDKit          3D

 14 12  0  0  0  0  0  0  0  0999 V2000
   -1.6546    1.9541    1.6307 C   0  0  0  0  0  3  0  0  0  0  0  0
   -1.7249    1.8654    2.7099 H   0  0  0  0  0  0  0  0  0  0  0  0
   -2.3889    1.3734    1.0817 H   0  0  0  0  0  0  0  0  0  0  0  0
   -1.5180    2.9676    1.2681 H   0  0  0  0  0  0  0  0  0  0  0  0
    0.6291    0.7041    1.0047 C   0  0  0  0  0  0  0  0  0  0  0  0
    0.5595   -0.3040    0.2172 C   0  0  0  0  0  0  0  0  0  0  0  0
    0.3977   -1.3181   -0.5988 C   0  0  0  0  0  0  0  0  0  0  0  0
    0.4507   -1.2214   -2.0946 C   0  0  0  0  0  0  0  0  0  0  0  0
   -0.4590    1.3057    1.3068 H   0  0  0  0  0  0  0  0  0  0  0  0
    1.5021    1.1370    1.4725 H   0  0  0  0  0  0  0  0  0  0  0  0
    0.2299   -2.2998   -0.1651 H   0  0  0  0  0  0  0  0  0  0  0  0
    1.2510   -1.8485   -2.4955 H   0  0  0  0  0  0  0  0  0  0  0  0
    0.6217   -0.1954   -2.4173 H   0  0  0  0  0  0  0  0  0  0  0  0
   -0.4856   -1.5720   -2.5363 H   0  0  0  0  0  0  0  0  0  0  0  0
  1  2  1  0
  1  3  1  0
  1  4  1  0
  5  6  2  0
  5  9  1  0
  5 10  1  0
  6  7  2  0
  7  8  1  0
  7 11  1  0
  8 12  1  0
  8 13  1  0
  8 14  1  0
M  RAD  1   1   2
M  END
>  <reaction>  (3) 
rmg_rxn_14122

>  <type>  (3) 
ts

>  <mol_properties>  (3) 
{"0": {"label": "*3", "atom_type": "Cs"}, "1": {"label": "*4", "atom_type": "H0"}, "4": {"label": "*1", "atom_type": "Cd"}, "5": {"label": "*0", "atom_type": "Cdd"}, "8": {"label": "*2", "atom_type": "H0"}}

$$$$
