
     RDKit          3D

 10  9  0  0  0  0  0  0  0  0999 V2000
   -0.2488    1.4612    1.2804 C   0  0  0  0  0  0  0  0  0  0  0  0
    0.0317    0.5581    0.3706 C   0  0  0  0  0  0  0  0  0  0  0  0
    0.3885   -0.2774   -0.5312 C   0  0  0  0  0  0  0  0  0  0  0  0
   -0.1581   -1.5742   -1.0151 C   0  0  0  0  0  0  0  0  0  0  0  0
    0.1438    1.3797    2.2872 H   0  0  0  0  0  0  0  0  0  0  0  0
   -0.8920    2.3037    1.0562 H   0  0  0  0  0  0  0  0  0  0  0  0
    1.3025    0.0006   -1.0559 H   0  0  0  0  0  0  0  0  0  0  0  0
    0.5910   -2.3611   -0.9034 H   0  0  0  0  0  0  0  0  0  0  0  0
   -0.4110   -1.5112   -2.0757 H   0  0  0  0  0  0  0  0  0  0  0  0
   -1.0544   -1.8586   -0.4625 H   0  0  0  0  0  0  0  0  0  0  0  0
  1  2  2  0
  1  5  1  0
  1  6  1  0
  2  3  2  0
  3  4  1  0
  3  7  1  0
  4  8  1  0
  4  9  1  0
  4 10  1  0
M  END
>  <reaction>  (1) 
rmg_rxn_13937

>  <type>  (1) 
r1h

>  <mol_properties>  (1) 
{"2": {"label": "donator", "atom_type": "Cd"}, "6": {"label": "d_hydrogen", "atom_type": "H0"}}

>  <electro_map>  (1) 
{"6": {"R": null, "A": null, "D": null}, "2": {"R": 1.0899999909882152, "A": null, "D": null}, "1": {"R": 1.2800536734533388, "A": 113.97828182660712, "D": null}, "0": {"R": 1.3122359418909968, "A": 145.71426342898695, "D": 178.99008848542198}, "3": {"R": 3.806699498887337, "A": 13.608541830700483, "D": 190.7237494100441}, "4": {"R": 4.440914935445981, "A": 12.269015309609555, "D": 100.4458711065633}, "5": {"R": 1.8553327972396714, "A": 78.4588650057381, "D": 8.667748373702024}, "7": {"R": 5.272596865867989, "A": 69.44736005351474, "D": 356.7821295621367}, "8": {"R": 1.7608402878635538, "A": 70.14362258167635, "D": 179.11889241139568}, "9": {"R": 1.7711503661352583, "A": 60.376120081881105, "D": 302.1498500556045}}

$$$$

     RDKit          3D

 14 13  0  0  0  0  0  0  0  0999 V2000
   -1.5550    0.4066   -1.2666 H   0  0  0  0  0  0  0  0  0  0  0  0
   -0.6519    0.6797   -1.8065 C   0  0  0  0  0  0  0  0  0  0  0  0
    0.1872    1.4917   -0.8594 C   0  0  0  0  0  0  0  0  0  0  0  0
    0.9370    0.6898    0.1890 C   0  0  0  0  0  0  0  0  0  0  0  0
    0.0570    0.1681    1.1965 O   0  0  0  0  0  0  0  0  0  0  0  0
   -0.3788   -1.0798    1.0659 C   0  0  0  0  0  0  0  0  0  0  0  0
   -0.0924   -1.8490    0.1938 O   0  0  0  0  0  0  0  0  0  0  0  0
   -0.2430   -0.2835   -2.1011 H   0  0  0  0  0  0  0  0  0  0  0  0
   -1.0781    1.2408   -2.6343 H   0  0  0  0  0  0  0  0  0  0  0  0
   -0.4294    2.2453   -0.3592 H   0  0  0  0  0  0  0  0  0  0  0  0
    0.9435    2.0484   -1.4279 H   0  0  0  0  0  0  0  0  0  0  0  0
    1.6274    1.3326    0.7333 H   0  0  0  0  0  0  0  0  0  0  0  0
    1.4914   -0.1323   -0.2648 H   0  0  0  0  0  0  0  0  0  0  0  0
   -1.0488   -1.3138    1.9026 H   0  0  0  0  0  0  0  0  0  0  0  0
  1  2  1  0
  2  3  1  0
  2  8  1  0
  2  9  1  0
  3  4  1  0
  3 10  1  0
  3 11  1  0
  4  5  1  0
  4 12  1  0
  4 13  1  0
  5  6  1  0
  6  7  2  0
  6 14  1  0
M  END
>  <reaction>  (2) 
rmg_rxn_13937

>  <type>  (2) 
r2h

>  <mol_properties>  (2) 
{"0": {"label": "a_hydrogen", "atom_type": "H0"}, "1": {"label": "acceptor", "atom_type": "Cs"}}

>  <electro_map>  (2) 
{"0": {"R": null, "A": null, "D": null}, "1": {"R": 1.0870687506621082, "A": null, "D": null}, "2": {"R": 1.5035201728972039, "A": 106.64118338696811, "D": null}, "3": {"R": 1.5180479522790777, "A": 105.76346397194364, "D": 246.66362088658033}, "4": {"R": 1.4358170650812945, "A": 111.95149307073734, "D": 287.7070402351763}, "5": {"R": 1.328141605049, "A": 118.26412542307978, "D": 96.28103881556814}, "6": {"R": 1.197672938002289, "A": 126.62450276181997, "D": 1.6342268063718763}, "7": {"R": 2.7820551703307683, "A": 103.08257429903647, "D": 316.272322462641}, "8": {"R": 1.818036272985932, "A": 137.61111707477104, "D": 336.43789622011235}, "9": {"R": 2.570265007160011, "A": 87.25628518431549, "D": 43.488098339009966}, "10": {"R": 1.7509790134359589, "A": 67.27215610805182, "D": 71.39235218057117}, "11": {"R": 2.3770860244597554, "A": 72.81532912427616, "D": 222.89565099013475}, "12": {"R": 1.7777964256553669, "A": 73.48355118987307, "D": 108.54785404336639}, "13": {"R": 3.542004976756963, "A": 89.20886017185221, "D": 242.239371505881}}

$$$$

     RDKit          3D

 23 21  0  0  0  0  0  0  0  0999 V2000
   -2.2336    1.6304    1.2582 C   0  0  0  0  0  0  0  0  0  0  0  0
   -1.9531    0.7274    0.3484 C   0  0  0  0  0  0  0  0  0  0  0  0
   -1.5963   -0.1082   -0.5534 C   0  0  0  0  0  0  0  0  0  0  0  0
   -2.1428   -1.4050   -1.0372 C   0  0  0  0  0  0  0  0  0  0  0  0
   -1.8409    1.5490    2.2650 H   0  0  0  0  0  0  0  0  0  0  0  0
   -2.8768    2.4730    1.0340 H   0  0  0  0  0  0  0  0  0  0  0  0
   -0.5199    0.2192   -1.1712 H   0  0  0  0  0  0  0  0  0  0  0  0
   -1.3938   -2.1919   -0.9256 H   0  0  0  0  0  0  0  0  0  0  0  0
   -2.3958   -1.3420   -2.0979 H   0  0  0  0  0  0  0  0  0  0  0  0
   -3.0392   -1.6893   -0.4847 H   0  0  0  0  0  0  0  0  0  0  0  0
    0.6414    0.5704   -1.8657 C   0  0  0  0  0  3  0  0  0  0  0  0
    1.4805    1.3825   -0.9185 C   0  0  0  0  0  0  0  0  0  0  0  0
    2.2303    0.5805    0.1299 C   0  0  0  0  0  0  0  0  0  0  0  0
    1.3503    0.0588    1.1373 O   0  0  0  0  0  0  0  0  0  0  0  0
    0.9146   -1.1891    1.0068 C   0  0  0  0  0  0  0  0  0  0  0  0
    1.2009   -1.9583    0.1346 O   0  0  0  0  0  0  0  0  0  0  0  0
    1.0504   -0.3928   -2.1602 H   0  0  0  0  0  0  0  0  0  0  0  0
    0.2152    1.1315   -2.6934 H   0  0  0  0  0  0  0  0  0  0  0  0
    0.8639    2.1360   -0.4183 H   0  0  0  0  0  0  0  0  0  0  0  0
    2.2368    1.9391   -1.4870 H   0  0  0  0  0  0  0  0  0  0  0  0
    2.9207    1.2233    0.6742 H   0  0  0  0  0  0  0  0  0  0  0  0
    2.7847   -0.2416   -0.3239 H   0  0  0  0  0  0  0  0  0  0  0  0
    0.2445   -1.4231    1.8435 H   0  0  0  0  0  0  0  0  0  0  0  0
  1  2  2  0
  1  5  1  0
  1  6  1  0
  2  3  2  0
  3  4  1  0
  3  7  1  0
  4  8  1  0
  4  9  1  0
  4 10  1  0
 11 12  1  0
 11 17  1  0
 11 18  1  0
 12 13  1  0
 12 19  1  0
 12 20  1  0
 13 14  1  0
 13 21  1  0
 13 22  1  0
 14 15  1  0
 15 16  2  0
 15 23  1  0
M  RAD  1  11   2
M  END
>  <reaction>  (3) 
rmg_rxn_13937

>  <type>  (3) 
ts

>  <mol_properties>  (3) 
{"1": {"label": "*0", "atom_type": "Cdd"}, "2": {"label": "*1", "atom_type": "Cd"}, "6": {"label": "*2", "atom_type": "H0"}, "10": {"label": "*3", "atom_type": "Cs"}, "11": {"label": "*4", "atom_type": "Cs"}}

$$$$
