
     RDKit          3D

 10  9  0  0  0  0  0  0  0  0999 V2000
   -1.6276    1.0886    0.0010 C   0  0  0  0  0  0  0  0  0  0  0  0
   -0.4600    0.4897    0.0008 C   0  0  0  0  0  0  0  0  0  0  0  0
    0.7148   -0.0188    0.0009 C   0  0  0  0  0  0  0  0  0  0  0  0
    1.2412   -1.4111   -0.0025 C   0  0  0  0  0  0  0  0  0  0  0  0
   -2.1327    1.3320    0.9283 H   0  0  0  0  0  0  0  0  0  0  0  0
   -2.1303    1.3373   -0.9261 H   0  0  0  0  0  0  0  0  0  0  0  0
    1.5149    0.7215    0.0041 H   0  0  0  0  0  0  0  0  0  0  0  0
    1.8697   -1.5786    0.8738 H   0  0  0  0  0  0  0  0  0  0  0  0
    1.8719   -1.5736   -0.8781 H   0  0  0  0  0  0  0  0  0  0  0  0
    0.4285   -2.1386   -0.0056 H   0  0  0  0  0  0  0  0  0  0  0  0
  1  2  2  0
  1  5  1  0
  1  6  1  0
  2  3  2  0
  3  4  1  0
  3  7  1  0
  4  8  1  0
  4  9  1  0
  4 10  1  0
M  END
>  <reaction>  (1) 
rmg_rxn_13853

>  <type>  (1) 
r1h

>  <mol_properties>  (1) 
{"2": {"label": "donator", "atom_type": "Cd"}, "6": {"label": "d_hydrogen", "atom_type": "H0"}}

>  <electro_map>  (1) 
{"6": {"R": null, "A": null, "D": null}, "2": {"R": 1.0900000456713745, "A": null, "D": null}, "1": {"R": 1.2801241231132539, "A": 113.81819926973272, "D": null}, "0": {"R": 1.312203918848522, "A": 146.14716115574927, "D": 179.99958442003194}, "3": {"R": 3.8049929141806995, "A": 13.911287190219175, "D": 180.00342562022837}, "4": {"R": 4.446792543870544, "A": 12.184912360859153, "D": 98.92158649917394}, "5": {"R": 1.8544343333688966, "A": 77.96485026643845, "D": 9.123510791631205}, "7": {"R": 5.267094890874621, "A": 69.98036761725004, "D": 356.87768183194845}, "8": {"R": 1.7518339084646923, "A": 69.98036761725004, "D": 179.99964424880042}, "9": {"R": 1.778769790850281, "A": 60.49965365268392, "D": 302.66652573289997}}

$$$$

     RDKit          3D

 14 14  0  0  0  0  0  0  0  0999 V2000
   -1.9343    0.2393   -0.0018 H   0  0  0  0  0  0  0  0  0  0  0  0
   -1.0910    0.9271    0.0013 C   0  0  0  0  0  0  0  0  0  0  0  0
   -0.3231    0.6125    1.2548 C   0  0  0  0  0  0  0  0  0  0  0  0
    0.2965   -0.6569    1.1609 O   0  0  0  0  0  0  0  0  0  0  0  0
    1.0616   -0.7651   -0.0009 C   0  0  0  0  0  0  0  0  0  0  0  0
    0.2994   -0.6502   -1.1639 O   0  0  0  0  0  0  0  0  0  0  0  0
   -0.3199    0.6198   -1.2520 C   0  0  0  0  0  0  0  0  0  0  0  0
   -1.5945    1.8919    0.0034 H   0  0  0  0  0  0  0  0  0  0  0  0
    0.4476    1.3824    1.4328 H   0  0  0  0  0  0  0  0  0  0  0  0
   -0.9741    0.5829    2.1284 H   0  0  0  0  0  0  0  0  0  0  0  0
    1.5063   -1.7576   -0.0032 H   0  0  0  0  0  0  0  0  0  0  0  0
    1.8496    0.0098    0.0024 H   0  0  0  0  0  0  0  0  0  0  0  0
   -0.9687    0.5952   -2.1275 H   0  0  0  0  0  0  0  0  0  0  0  0
    0.4513    1.3907   -1.4236 H   0  0  0  0  0  0  0  0  0  0  0  0
  1  2  1  0
  2  3  1  0
  2  7  1  0
  2  8  1  0
  3  4  1  0
  3  9  1  0
  3 10  1  0
  4  5  1  0
  5  6  1  0
  5 11  1  0
  5 12  1  0
  6  7  1  0
  7 13  1  0
  7 14  1  0
M  END
>  <reaction>  (2) 
rmg_rxn_13853

>  <type>  (2) 
r2h

>  <mol_properties>  (2) 
{"0": {"label": "a_hydrogen", "atom_type": "H0"}, "1": {"label": "acceptor", "atom_type": "Cs"}}

>  <electro_map>  (2) 
{"0": {"R": null, "A": null, "D": null}, "1": {"R": 1.0882864048952807, "A": null, "D": null}, "2": {"R": 1.5032523975591099, "A": 105.42129025312376, "D": null}, "3": {"R": 1.4156612821058148, "A": 97.94573676412746, "D": 241.7756822075467}, "4": {"R": 1.3952629670068104, "A": 111.3932284679478, "D": 52.66271841058335}, "5": {"R": 1.3952629670068104, "A": 112.83365186163576, "D": 297.7203861745121}, "6": {"R": 1.4156612821058148, "A": 111.3932284679478, "D": 62.279400261208636}, "7": {"R": 2.195222683083977, "A": 137.58237680380307, "D": 307.3607194460408}, "8": {"R": 2.544151019604178, "A": 74.88402542046087, "D": 55.023679795770036}, "9": {"R": 1.7732499817509528, "A": 70.55758584016041, "D": 247.94739895346927}, "10": {"R": 4.021669106596676, "A": 63.893272149570976, "D": 101.39860540459952}, "11": {"R": 1.800412419543752, "A": 62.915210766684, "D": 353.6636271603215}, "12": {"R": 3.5807633313947775, "A": 90.49093126792756, "D": 287.0746510815124}, "13": {"R": 1.7732499817509528, "A": 37.53122583888581, "D": 189.3628684094561}}

$$$$

     RDKit          3D

 23 22  0  0  0  0  0  0  0  0999 V2000
   -3.9808    0.6065   -0.0034 C   0  0  0  0  0  0  0  0  0  0  0  0
   -2.8133    0.0076   -0.0037 C   0  0  0  0  0  0  0  0  0  0  0  0
   -1.6384   -0.5009   -0.0036 C   0  0  0  0  0  0  0  0  0  0  0  0
   -1.1121   -1.8932   -0.0070 C   0  0  0  0  0  0  0  0  0  0  0  0
   -4.4860    0.8499    0.9238 H   0  0  0  0  0  0  0  0  0  0  0  0
   -4.4836    0.8553   -0.9306 H   0  0  0  0  0  0  0  0  0  0  0  0
   -0.6941    0.3730    0.0002 H   0  0  0  0  0  0  0  0  0  0  0  0
   -0.4836   -2.0607    0.8693 H   0  0  0  0  0  0  0  0  0  0  0  0
   -0.4813   -2.0556   -0.8825 H   0  0  0  0  0  0  0  0  0  0  0  0
   -1.9248   -2.6207   -0.0101 H   0  0  0  0  0  0  0  0  0  0  0  0
    0.3843    1.2525    0.0041 C   0  0  0  0  0  3  0  0  0  0  0  0
    1.1521    0.9379    1.2576 C   0  0  0  0  0  0  0  0  0  0  0  0
    1.7717   -0.3315    1.1637 O   0  0  0  0  0  0  0  0  0  0  0  0
    2.5369   -0.4397    0.0019 C   0  0  0  0  0  0  0  0  0  0  0  0
    1.7747   -0.3248   -1.1611 O   0  0  0  0  0  0  0  0  0  0  0  0
    1.1553    0.9452   -1.2492 C   0  0  0  0  0  0  0  0  0  0  0  0
   -0.1192    2.2173    0.0062 H   0  0  0  0  0  0  0  0  0  0  0  0
    1.9229    1.7078    1.4356 H   0  0  0  0  0  0  0  0  0  0  0  0
    0.5011    0.9083    2.1312 H   0  0  0  0  0  0  0  0  0  0  0  0
    2.9815   -1.4322   -0.0004 H   0  0  0  0  0  0  0  0  0  0  0  0
    3.3248    0.3352    0.0052 H   0  0  0  0  0  0  0  0  0  0  0  0
    0.5066    0.9207   -2.1247 H   0  0  0  0  0  0  0  0  0  0  0  0
    1.9265    1.7161   -1.4208 H   0  0  0  0  0  0  0  0  0  0  0  0
  1  2  2  0
  1  5  1  0
  1  6  1  0
  2  3  2  0
  3  4  1  0
  3  7  1  0
  4  8  1  0
  4  9  1  0
  4 10  1  0
 11 12  1  0
 11 16  1  0
 11 17  1  0
 12 13  1  0
 12 18  1  0
 12 19  1  0
 13 14  1  0
 14 15  1  0
 14 20  1  0
 14 21  1  0
 15 16  1  0
 16 22  1  0
 16 23  1  0
M  RAD  1  11   2
M  END
>  <reaction>  (3) 
rmg_rxn_13853

>  <type>  (3) 
ts

>  <mol_properties>  (3) 
{"1": {"label": "*0", "atom_type": "Cdd"}, "2": {"label": "*1", "atom_type": "Cd"}, "6": {"label": "*2", "atom_type": "H0"}, "10": {"label": "*3", "atom_type": "Cs"}, "11": {"label": "*4", "atom_type": "Cs"}}

$$$$
