
     RDKit          3D

 10  9  0  0  0  0  0  0  0  0999 V2000
   -1.4007   -0.8283    0.9615 C   0  0  0  0  0  0  0  0  0  0  0  0
   -0.4486   -0.4854    0.1875 C   0  0  0  0  0  0  0  0  0  0  0  0
    0.4363   -0.0295   -0.6801 C   0  0  0  0  0  0  0  0  0  0  0  0
    1.3127    1.1651   -0.4427 C   0  0  0  0  0  0  0  0  0  0  0  0
   -2.3334   -0.3413    0.7238 H   0  0  0  0  0  0  0  0  0  0  0  0
   -1.4396   -1.5106    1.7961 H   0  0  0  0  0  0  0  0  0  0  0  0
    0.5732   -0.5795   -1.6066 H   0  0  0  0  0  0  0  0  0  0  0  0
    1.1972    1.9000   -1.2438 H   0  0  0  0  0  0  0  0  0  0  0  0
    2.3672    0.8774   -0.4235 H   0  0  0  0  0  0  0  0  0  0  0  0
    1.0736    1.6467    0.5049 H   0  0  0  0  0  0  0  0  0  0  0  0
  1  2  2  0
  1  5  1  0
  1  6  1  0
  2  3  2  0
  3  4  1  0
  3  7  1  0
  4  8  1  0
  4  9  1  0
  4 10  1  0
M  END
>  <reaction>  (1) 
rmg_rxn_14035

>  <type>  (1) 
r1h

>  <mol_properties>  (1) 
{"0": {"label": "donator", "atom_type": "Cd"}, "4": {"label": "d_hydrogen", "atom_type": "H0"}}

>  <electro_map>  (1) 
{"4": {"R": null, "A": null, "D": null}, "0": {"R": 1.0787282720965679, "A": null, "D": null}, "1": {"R": 1.274029553164936, "A": 112.99886593766962, "D": null}, "2": {"R": 1.3204214288142768, "A": 142.83327596772662, "D": 180.78724114058767}, "3": {"R": 1.5005727310324428, "A": 124.21616967894568, "D": 87.86223965161604}, "5": {"R": 4.4438006305627, "A": 40.41018717206754, "D": 11.222148664275077}, "6": {"R": 4.061670541449697, "A": 29.883204409326297, "D": 6.678696375442789}, "7": {"R": 2.5824958510240905, "A": 102.8357485717925, "D": 342.9375401571448}, "8": {"R": 1.7571335901399252, "A": 70.58941004282724, "D": 82.45533781308015}, "9": {"R": 1.7684193332384113, "A": 60.32117802190478, "D": 259.44181066020707}}

$$$$

     RDKit          3D

  9  8  0  0  0  0  0  0  0  0999 V2000
   -0.0075    0.8786    0.9557 C   0  0  0  0  0  0  0  0  0  0  0  0
   -0.2074   -0.4250    0.2337 C   0  0  0  0  0  0  0  0  0  0  0  0
    0.1199   -0.4259   -1.1053 O   0  0  0  0  0  0  0  0  0  0  0  0
   -0.6226    1.6679    0.5146 H   0  0  0  0  0  0  0  0  0  0  0  0
   -0.2728    0.7761    2.0088 H   0  0  0  0  0  0  0  0  0  0  0  0
    1.0401    1.1883    0.9016 H   0  0  0  0  0  0  0  0  0  0  0  0
   -1.1889   -0.8801    0.3564 H   0  0  0  0  0  0  0  0  0  0  0  0
    1.0351   -0.1413   -1.2008 H   0  0  0  0  0  0  0  0  0  0  0  0
    0.5070   -1.1029    0.6978 H   0  0  0  0  0  0  0  0  0  0  0  0
  1  2  1  0
  1  4  1  0
  1  5  1  0
  1  6  1  0
  2  3  1  0
  2  7  1  0
  2  9  1  0
  3  8  1  0
M  END
>  <reaction>  (2) 
rmg_rxn_14035

>  <type>  (2) 
r2h

>  <mol_properties>  (2) 
{"1": {"label": "acceptor", "atom_type": "Cs"}, "8": {"label": "a_hydrogen", "atom_type": "H0"}}

>  <electro_map>  (2) 
{"8": {"R": null, "A": null, "D": null}, "1": {"R": 1.0887752750760848, "A": null, "D": null}, "2": {"R": 1.3784174066124208, "A": 104.94735381293923, "D": null}, "0": {"R": 2.4425307956968005, "A": 54.538232113199854, "D": 38.264584116721615}, "7": {"R": 2.603414157226593, "A": 21.707401934622627, "D": 128.14838610380812}, "3": {"R": 2.993937725003025, "A": 21.080741087815344, "D": 76.15694241145313}, "4": {"R": 1.7749233659131602, "A": 93.99205506729436, "D": 353.6584568103516}, "5": {"R": 1.7661618117165867, "A": 60.09904751637584, "D": 46.52230270183037}, "6": {"R": 3.0892797985067513, "A": 54.41429959989658, "D": 290.2920365472567}}

$$$$

     RDKit          3D

 18 16  0  0  0  0  0  0  0  0999 V2000
   -1.6686    1.4824    0.8126 C   0  0  0  0  0  0  0  0  0  0  0  0
   -1.8685    0.1787    0.0906 C   0  0  0  0  0  0  0  0  0  0  0  0
   -1.5412    0.1778   -1.2484 O   0  0  0  0  0  0  0  0  0  0  0  0
   -2.2837    2.2716    0.3715 H   0  0  0  0  0  0  0  0  0  0  0  0
   -1.9339    1.3799    1.8657 H   0  0  0  0  0  0  0  0  0  0  0  0
   -0.6210    1.7920    0.7585 H   0  0  0  0  0  0  0  0  0  0  0  0
   -2.8500   -0.2764    0.2133 H   0  0  0  0  0  0  0  0  0  0  0  0
   -0.6260    0.4624   -1.3439 H   0  0  0  0  0  0  0  0  0  0  0  0
    0.1819   -1.2643    0.9577 C   0  0  0  0  0  0  0  0  0  0  0  0
    1.1340   -0.9213    0.1837 C   0  0  0  0  0  0  0  0  0  0  0  0
    2.0189   -0.4655   -0.6839 C   0  0  0  0  0  3  0  0  0  0  0  0
    2.8953    0.7292   -0.4465 C   0  0  0  0  0  0  0  0  0  0  0  0
   -0.9960   -0.6492    0.6575 H   0  0  0  0  0  0  0  0  0  0  0  0
    0.1430   -1.9466    1.7924 H   0  0  0  0  0  0  0  0  0  0  0  0
    2.1558   -1.0155   -1.6104 H   0  0  0  0  0  0  0  0  0  0  0  0
    2.7798    1.4641   -1.2476 H   0  0  0  0  0  0  0  0  0  0  0  0
    3.9498    0.4414   -0.4273 H   0  0  0  0  0  0  0  0  0  0  0  0
    2.6562    1.2108    0.5012 H   0  0  0  0  0  0  0  0  0  0  0  0
  1  2  1  0
  1  4  1  0
  1  5  1  0
  1  6  1  0
  2  3  1  0
  2  7  1  0
  2 13  1  0
  3  8  1  0
  9 10  3  0
  9 14  1  0
 10 11  1  0
 11 12  1  0
 11 15  1  0
 12 16  1  0
 12 17  1  0
 12 18  1  0
M  RAD  1  11   2
M  END
>  <reaction>  (3) 
rmg_rxn_14035

>  <type>  (3) 
ts

>  <mol_properties>  (3) 
{"1": {"label": "*1", "atom_type": "Cs"}, "2": {"label": "*0", "atom_type": "O2s"}, "8": {"label": "*3", "atom_type": "Ct"}, "9": {"label": "*4", "atom_type": "Ct"}, "12": {"label": "*2", "atom_type": "H0"}}

$$$$
