
     RDKit          3D

 10  9  0  0  0  0  0  0  0  0999 V2000
    0.0833    1.5649    1.0648 C   0  0  0  0  0  0  0  0  0  0  0  0
    0.1268    0.3972    0.5337 C   0  0  0  0  0  0  0  0  0  0  0  0
    0.0958   -0.7994    0.0031 C   0  0  0  0  0  0  0  0  0  0  0  0
   -0.2428   -1.0857   -1.4296 C   0  0  0  0  0  0  0  0  0  0  0  0
   -0.8509    1.8989    1.4949 H   0  0  0  0  0  0  0  0  0  0  0  0
    0.8830    2.2878    1.1491 H   0  0  0  0  0  0  0  0  0  0  0  0
    0.3447   -1.6449    0.6384 H   0  0  0  0  0  0  0  0  0  0  0  0
    0.5912   -1.5821   -1.9317 H   0  0  0  0  0  0  0  0  0  0  0  0
   -0.4768   -0.1698   -1.9702 H   0  0  0  0  0  0  0  0  0  0  0  0
   -1.1034   -1.7560   -1.4935 H   0  0  0  0  0  0  0  0  0  0  0  0
  1  2  2  0
  1  5  1  0
  1  6  1  0
  2  3  2  0
  3  4  1  0
  3  7  1  0
  4  8  1  0
  4  9  1  0
  4 10  1  0
M  END
>  <reaction>  (1) 
rmg_rxn_14004

>  <type>  (1) 
r1h

>  <mol_properties>  (1) 
{"0": {"label": "donator", "atom_type": "Cd"}, "4": {"label": "d_hydrogen", "atom_type": "H0"}}

>  <electro_map>  (1) 
{"4": {"R": null, "A": null, "D": null}, "0": {"R": 1.0813114788239557, "A": null, "D": null}, "1": {"R": 1.2835460651662676, "A": 118.35438484213208, "D": null}, "2": {"R": 1.3093154511305336, "A": 148.76892876550167, "D": 180.67747946817173}, "3": {"R": 1.4998108426670806, "A": 124.53488763818144, "D": 84.45802301997679}, "5": {"R": 4.392904863973371, "A": 40.074123794566695, "D": 15.119530424904154}, "6": {"R": 4.002047491566768, "A": 30.230607064232107, "D": 7.559674576564969}, "7": {"R": 2.582642914177192, "A": 95.17980326399751, "D": 22.563037327984272}, "8": {"R": 1.7710891837998042, "A": 89.05182430028485, "D": 314.52158208380115}, "9": {"R": 1.7708795055279043, "A": 59.55436619854368, "D": 292.639233524126}}

$$$$

     RDKit          3D

  4  3  0  0  0  0  0  0  0  0999 V2000
   -0.0254    0.0103    0.0126 C   0  0  0  0  0  3  0  0  0  0  0  0
   -0.1080    1.0511    0.2954 H   0  0  0  0  0  0  0  0  0  0  0  0
   -0.7926   -0.7456    0.1137 H   0  0  0  0  0  0  0  0  0  0  0  0
    0.9078   -0.3228   -0.4215 H   0  0  0  0  0  0  0  0  0  0  0  0
  1  2  1  0
  1  3  1  0
  1  4  1  0
M  RAD  1   1   2
M  END
>  <reaction>  (2) 
rmg_rxn_14004

>  <type>  (2) 
r2h

>  <mol_properties>  (2) 
{"0": {"label": "acceptor", "atom_type": "Cs"}, "3": {"label": "a_hydrogen", "atom_type": "H0"}}

>  <electro_map>  (2) 
{"3": {"R": null, "A": null, "D": null}, "0": {"R": 1.0817457297461885, "A": null, "D": null}, "1": {"R": 1.0817457297461885, "A": 117.84425933003381, "D": null}, "2": {"R": 1.9312519727777078, "A": 57.86923046541451, "D": 359.7815057161311}}

$$$$

     RDKit          3D

 13 11  0  0  0  0  0  0  0  0999 V2000
   -1.6776    1.9516    1.6793 C   0  0  0  0  0  2  0  0  0  0  0  0
   -1.7603    2.9925    1.9622 H   0  0  0  0  0  0  0  0  0  0  0  0
   -2.4448    1.1958    1.7805 H   0  0  0  0  0  0  0  0  0  0  0  0
    0.6249    1.1291    0.6135 C   0  0  0  0  0  0  0  0  0  0  0  0
    0.6684   -0.0386    0.0824 C   0  0  0  0  0  0  0  0  0  0  0  0
    0.6374   -1.2352   -0.4482 C   0  0  0  0  0  0  0  0  0  0  0  0
    0.2988   -1.5215   -1.8810 C   0  0  0  0  0  0  0  0  0  0  0  0
   -0.4494    1.5133    1.1081 H   0  0  0  0  0  0  0  0  0  0  0  0
    1.4246    1.8520    0.6978 H   0  0  0  0  0  0  0  0  0  0  0  0
    0.8863   -2.0806    0.1870 H   0  0  0  0  0  0  0  0  0  0  0  0
    1.1328   -2.0179   -2.3831 H   0  0  0  0  0  0  0  0  0  0  0  0
    0.0648   -0.6056   -2.4216 H   0  0  0  0  0  0  0  0  0  0  0  0
   -0.5619   -2.1918   -1.9449 H   0  0  0  0  0  0  0  0  0  0  0  0
  1  2  1  0
  1  3  1  0
  4  5  2  0
  4  8  1  0
  4  9  1  0
  5  6  2  0
  6  7  1  0
  6 10  1  0
  7 11  1  0
  7 12  1  0
  7 13  1  0
M  RAD  1   1   3
M  END
>  <reaction>  (3) 
rmg_rxn_14004

>  <type>  (3) 
ts

>  <mol_properties>  (3) 
{"0": {"label": "*3", "atom_type": "Cs"}, "1": {"label": "*4", "atom_type": "H0"}, "3": {"label": "*1", "atom_type": "Cd"}, "4": {"label": "*0", "atom_type": "Cdd"}, "7": {"label": "*2", "atom_type": "H0"}}

$$$$
