
     RDKit          3D

 10  9  0  0  0  0  0  0  0  0999 V2000
   -1.1287   -1.5148   -0.0553 C   0  0  0  0  0  0  0  0  0  0  0  0
   -0.2873   -0.5695   -0.2470 C   0  0  0  0  0  0  0  0  0  0  0  0
    0.4563    0.4944   -0.4461 C   0  0  0  0  0  0  0  0  0  0  0  0
    0.9174    1.4210    0.6363 C   0  0  0  0  0  0  0  0  0  0  0  0
   -2.1678   -1.2195   -0.0607 H   0  0  0  0  0  0  0  0  0  0  0  0
   -0.9651   -2.5649    0.1383 H   0  0  0  0  0  0  0  0  0  0  0  0
    0.7406    0.7337   -1.4666 H   0  0  0  0  0  0  0  0  0  0  0  0
    2.0012    1.5520    0.6040 H   0  0  0  0  0  0  0  0  0  0  0  0
    0.6404    1.0474    1.6212 H   0  0  0  0  0  0  0  0  0  0  0  0
    0.4601    2.4047    0.4986 H   0  0  0  0  0  0  0  0  0  0  0  0
  1  2  2  0
  1  5  1  0
  1  6  1  0
  2  3  2  0
  3  4  1  0
  3  7  1  0
  4  8  1  0
  4  9  1  0
  4 10  1  0
M  END
>  <reaction>  (1) 
rmg_rxn_14072

>  <type>  (1) 
r1h

>  <mol_properties>  (1) 
{"0": {"label": "donator", "atom_type": "Cd"}, "4": {"label": "d_hydrogen", "atom_type": "H0"}}

>  <electro_map>  (1) 
{"4": {"R": null, "A": null, "D": null}, "0": {"R": 1.080240799585496, "A": null, "D": null}, "1": {"R": 1.2800149314724734, "A": 115.44344251419815, "D": null}, "2": {"R": 1.3131584604785345, "A": 144.15079313165103, "D": 180.59900505951381}, "3": {"R": 1.4976225927289142, "A": 124.47461865532493, "D": 83.28898064281373}, "5": {"R": 4.4361398251015, "A": 39.84929158223539, "D": 12.029050590128191}, "6": {"R": 4.045533182394924, "A": 29.886512526851934, "D": 5.067971441595376}, "7": {"R": 2.558570267664188, "A": 98.47833355949464, "D": 21.21183643818601}, "8": {"R": 1.7723435712476423, "A": 89.71801008334174, "D": 322.32478037503927}, "9": {"R": 1.7705948014516857, "A": 59.73827268562629, "D": 291.7872335067145}}

$$$$

     RDKit          3D

 10  9  0  0  0  0  0  0  0  0999 V2000
   -0.6823   -1.7442    0.1521 C   0  0  0  0  0  0  0  0  0  0  0  0
   -0.4192   -0.3272    0.5711 C   0  0  0  0  0  0  0  0  0  0  0  0
    0.2978    0.5058   -0.4680 C   0  0  0  0  0  0  0  0  0  0  0  0
    0.7636    1.5890   -0.2486 O   0  0  0  0  0  0  0  0  0  0  0  0
   -1.1947   -2.3580    0.8875 H   0  0  0  0  0  0  0  0  0  0  0  0
   -1.0796   -1.8745   -0.8528 H   0  0  0  0  0  0  0  0  0  0  0  0
    0.1603   -0.2794    1.4966 H   0  0  0  0  0  0  0  0  0  0  0  0
   -1.3607    0.1986    0.7821 H   0  0  0  0  0  0  0  0  0  0  0  0
    0.3516    0.0626   -1.4850 H   0  0  0  0  0  0  0  0  0  0  0  0
    0.3028   -2.2008    0.0935 H   0  0  0  0  0  0  0  0  0  0  0  0
  1  2  1  0
  1  5  1  0
  1  6  1  0
  1 10  1  0
  2  3  1  0
  2  7  1  0
  2  8  1  0
  3  4  2  0
  3  9  1  0
M  END
>  <reaction>  (2) 
rmg_rxn_14072

>  <type>  (2) 
r2h

>  <mol_properties>  (2) 
{"0": {"label": "acceptor", "atom_type": "Cs"}, "9": {"label": "a_hydrogen", "atom_type": "H0"}}

>  <electro_map>  (2) 
{"9": {"R": null, "A": null, "D": null}, "0": {"R": 1.0873873794820987, "A": null, "D": null}, "1": {"R": 1.50088903783729, "A": 104.6371498764877, "D": null}, "2": {"R": 1.5124680980754348, "A": 100.08785010518068, "D": 238.7156077848656}, "3": {"R": 1.1993622833738709, "A": 123.7691516941098, "D": 191.23125802503088}, "4": {"R": 4.550218748765942, "A": 25.189422144632367, "D": 8.088319900283738}, "5": {"R": 1.8098990753657076, "A": 60.055134570646764, "D": 348.69625462288997}, "6": {"R": 3.098627580361167, "A": 55.521237975442745, "D": 4.566024197001823}, "7": {"R": 1.7470786370067886, "A": 58.829585629553655, "D": 260.37508800291283}, "8": {"R": 2.8443508980521375, "A": 77.8056086336684, "D": 306.4935204617184}}

$$$$

     RDKit          3D

 19 17  0  0  0  0  0  0  0  0999 V2000
   -2.1580   -1.1767    0.0547 C   0  0  0  0  0  3  0  0  0  0  0  0
   -1.8949    0.2404    0.4736 C   0  0  0  0  0  0  0  0  0  0  0  0
   -1.1779    1.0734   -0.5655 C   0  0  0  0  0  0  0  0  0  0  0  0
   -0.7121    2.1566   -0.3461 O   0  0  0  0  0  0  0  0  0  0  0  0
   -2.6704   -1.7905    0.7900 H   0  0  0  0  0  0  0  0  0  0  0  0
   -2.5553   -1.3070   -0.9503 H   0  0  0  0  0  0  0  0  0  0  0  0
   -1.3154    0.2881    1.3991 H   0  0  0  0  0  0  0  0  0  0  0  0
   -2.8364    0.7661    0.6847 H   0  0  0  0  0  0  0  0  0  0  0  0
   -1.1241    0.6301   -1.5825 H   0  0  0  0  0  0  0  0  0  0  0  0
    0.3429   -2.1128   -0.0137 C   0  0  0  0  0  0  0  0  0  0  0  0
    1.1843   -1.1674   -0.2054 C   0  0  0  0  0  0  0  0  0  0  0  0
    1.9279   -0.1036   -0.4045 C   0  0  0  0  0  0  0  0  0  0  0  0
    2.3890    0.8231    0.6779 C   0  0  0  0  0  0  0  0  0  0  0  0
   -0.9012   -1.7592   -0.0202 H   0  0  0  0  0  0  0  0  0  0  0  0
    0.5065   -3.1628    0.1799 H   0  0  0  0  0  0  0  0  0  0  0  0
    2.2122    0.1358   -1.4250 H   0  0  0  0  0  0  0  0  0  0  0  0
    3.4729    0.9540    0.6456 H   0  0  0  0  0  0  0  0  0  0  0  0
    2.1120    0.4495    1.6627 H   0  0  0  0  0  0  0  0  0  0  0  0
    1.9318    1.8068    0.5402 H   0  0  0  0  0  0  0  0  0  0  0  0
  1  2  1  0
  1  5  1  0
  1  6  1  0
  2  3  1  0
  2  7  1  0
  2  8  1  0
  3  4  2  0
  3  9  1  0
 10 11  2  0
 10 14  1  0
 10 15  1  0
 11 12  2  0
 12 13  1  0
 12 16  1  0
 13 17  1  0
 13 18  1  0
 13 19  1  0
M  RAD  1   1   2
M  END
>  <reaction>  (3) 
rmg_rxn_14072

>  <type>  (3) 
ts

>  <mol_properties>  (3) 
{"0": {"label": "*3", "atom_type": "Cs"}, "1": {"label": "*4", "atom_type": "Cs"}, "9": {"label": "*1", "atom_type": "Cd"}, "10": {"label": "*0", "atom_type": "Cdd"}, "13": {"label": "*2", "atom_type": "H0"}}

$$$$
