
     RDKit          3D

 10  9  0  0  0  0  0  0  0  0999 V2000
    0.3908    1.2905    1.3284 C   0  0  0  0  0  0  0  0  0  0  0  0
    0.1813    0.2580    0.6037 C   0  0  0  0  0  0  0  0  0  0  0  0
   -0.1519   -0.7804   -0.1290 C   0  0  0  0  0  0  0  0  0  0  0  0
   -0.3497   -0.7427   -1.6150 C   0  0  0  0  0  0  0  0  0  0  0  0
   -0.4859    1.8202    1.6708 H   0  0  0  0  0  0  0  0  0  0  0  0
    1.3228    1.7293    1.6531 H   0  0  0  0  0  0  0  0  0  0  0  0
   -0.2859   -1.7345    0.3726 H   0  0  0  0  0  0  0  0  0  0  0  0
    0.3445   -1.4190   -2.1201 H   0  0  0  0  0  0  0  0  0  0  0  0
   -0.1977    0.2622   -2.0071 H   0  0  0  0  0  0  0  0  0  0  0  0
   -1.3610   -1.0663   -1.8775 H   0  0  0  0  0  0  0  0  0  0  0  0
  1  2  2  0
  1  5  1  0
  1  6  1  0
  2  3  2  0
  3  4  1  0
  3  7  1  0
  4  8  1  0
  4  9  1  0
  4 10  1  0
M  END
>  <reaction>  (1) 
rmg_rxn_14050

>  <type>  (1) 
r1h

>  <mol_properties>  (1) 
{"0": {"label": "donator", "atom_type": "Cd"}, "4": {"label": "d_hydrogen", "atom_type": "H0"}}

>  <electro_map>  (1) 
{"4": {"R": null, "A": null, "D": null}, "0": {"R": 1.0801119531780075, "A": null, "D": null}, "1": {"R": 1.278747487219526, "A": 116.2728845468257, "D": null}, "2": {"R": 1.3137801149294015, "A": 145.87364680070465, "D": 180.0089488556781}, "3": {"R": 1.4995645049830642, "A": 124.48384598728165, "D": 89.32765037959237}, "5": {"R": 4.425876491831564, "A": 39.86935712374214, "D": 13.162069514435577}, "6": {"R": 4.028134347033254, "A": 30.009477712818832, "D": 6.4872745478842315}, "7": {"R": 2.590445838319317, "A": 95.96678501421317, "D": 22.215375418981747}, "8": {"R": 1.7700393991341845, "A": 88.83694257848897, "D": 315.77610643063014}, "9": {"R": 1.7705395249116276, "A": 59.55366171179536, "D": 292.65234965890494}}

$$$$

     RDKit          3D

 15 14  0  0  0  0  0  0  0  0999 V2000
    2.0202    1.6555    0.1389 H   0  0  0  0  0  0  0  0  0  0  0  0
    1.0540    2.1122    0.3370 C   0  0  0  0  0  0  0  0  0  0  0  0
    0.1132    1.2198   -0.4030 C   0  0  0  0  0  0  0  0  0  0  0  0
    0.0311   -0.0128    0.2620 O   0  0  0  0  0  0  0  0  0  0  0  0
   -0.6309   -1.0024   -0.4838 C   0  0  0  0  0  0  0  0  0  0  0  0
   -0.6089   -2.2954    0.2968 C   0  0  0  0  0  0  0  0  0  0  0  0
    0.9541    2.0870    1.4189 H   0  0  0  0  0  0  0  0  0  0  0  0
    1.1488    3.1145   -0.0730 H   0  0  0  0  0  0  0  0  0  0  0  0
    0.4742    1.0710   -1.4332 H   0  0  0  0  0  0  0  0  0  0  0  0
   -0.8875    1.6788   -0.4794 H   0  0  0  0  0  0  0  0  0  0  0  0
   -1.6658   -0.6920   -0.6910 H   0  0  0  0  0  0  0  0  0  0  0  0
   -0.1266   -1.1321   -1.4527 H   0  0  0  0  0  0  0  0  0  0  0  0
   -1.1145   -2.1743    1.2554 H   0  0  0  0  0  0  0  0  0  0  0  0
   -1.1119   -3.0850   -0.2638 H   0  0  0  0  0  0  0  0  0  0  0  0
    0.4197   -2.6036    0.4879 H   0  0  0  0  0  0  0  0  0  0  0  0
  1  2  1  0
  2  3  1  0
  2  7  1  0
  2  8  1  0
  3  4  1  0
  3  9  1  0
  3 10  1  0
  4  5  1  0
  5  6  1  0
  5 11  1  0
  5 12  1  0
  6 13  1  0
  6 14  1  0
  6 15  1  0
M  END
>  <reaction>  (2) 
rmg_rxn_14050

>  <type>  (2) 
r2h

>  <mol_properties>  (2) 
{"0": {"label": "a_hydrogen", "atom_type": "H0"}, "1": {"label": "acceptor", "atom_type": "Cs"}}

>  <electro_map>  (2) 
{"0": {"R": null, "A": null, "D": null}, "1": {"R": 1.086948281132517, "A": null, "D": null}, "2": {"R": 1.492924293642669, "A": 102.63502218994579, "D": null}, "3": {"R": 1.4029696881968425, "A": 96.72221166045705, "D": 244.01564360697998}, "4": {"R": 1.4048120140077898, "A": 113.25793423867685, "D": 191.11988393011578}, "5": {"R": 1.5105633719218936, "A": 108.77294408564471, "D": 177.5797472324505}, "6": {"R": 4.786263025703947, "A": 48.859479630789856, "D": 3.6670899317971597}, "7": {"R": 1.8219254841688481, "A": 111.05589759469092, "D": 341.88227927721215}, "8": {"R": 2.545817898850758, "A": 87.50983416048975, "D": 357.10074501363545}, "9": {"R": 1.7701797475980094, "A": 68.91953491145378, "D": 68.24968192039239}, "10": {"R": 2.504244158196945, "A": 82.4417728267301, "D": 204.73601695702706}, "11": {"R": 1.7727874703169615, "A": 90.08798769806107, "D": 6.759978465733019}, "12": {"R": 3.0652343065522643, "A": 54.902206027601764, "D": 115.19378793781507}, "13": {"R": 1.7712345641115734, "A": 54.309575918864056, "D": 104.11183114911832}, "14": {"R": 1.7727874703169615, "A": 59.86718920182886, "D": 65.69957331058565}}

$$$$

     RDKit          3D

 24 22  0  0  0  0  0  0  0  0999 V2000
    2.0808    1.0909    0.4096 C   0  0  0  0  0  0  0  0  0  0  0  0
    1.8712    0.0583   -0.3151 C   0  0  0  0  0  0  0  0  0  0  0  0
    1.5381   -0.9801   -1.0477 C   0  0  0  0  0  0  0  0  0  0  0  0
    1.3402   -0.9423   -2.5337 C   0  0  0  0  0  0  0  0  0  0  0  0
    1.0274    1.7273    0.8210 H   0  0  0  0  0  0  0  0  0  0  0  0
    3.0128    1.5297    0.7343 H   0  0  0  0  0  0  0  0  0  0  0  0
    1.4040   -1.9341   -0.5461 H   0  0  0  0  0  0  0  0  0  0  0  0
    2.0344   -1.6186   -3.0388 H   0  0  0  0  0  0  0  0  0  0  0  0
    1.4922    0.0626   -2.9258 H   0  0  0  0  0  0  0  0  0  0  0  0
    0.3290   -1.2659   -2.7963 H   0  0  0  0  0  0  0  0  0  0  0  0
   -0.1991    2.3069    1.0724 C   0  0  0  0  0  3  0  0  0  0  0  0
   -1.1398    1.4145    0.3325 C   0  0  0  0  0  0  0  0  0  0  0  0
   -1.2219    0.1819    0.9974 O   0  0  0  0  0  0  0  0  0  0  0  0
   -1.8839   -0.8077    0.2517 C   0  0  0  0  0  0  0  0  0  0  0  0
   -1.8620   -2.1007    1.0322 C   0  0  0  0  0  0  0  0  0  0  0  0
   -0.2989    2.2817    2.1544 H   0  0  0  0  0  0  0  0  0  0  0  0
   -0.1042    3.3092    0.6625 H   0  0  0  0  0  0  0  0  0  0  0  0
   -0.7788    1.2657   -0.6978 H   0  0  0  0  0  0  0  0  0  0  0  0
   -2.1406    1.8736    0.2561 H   0  0  0  0  0  0  0  0  0  0  0  0
   -2.9188   -0.4973    0.0445 H   0  0  0  0  0  0  0  0  0  0  0  0
   -1.3797   -0.9374   -0.7172 H   0  0  0  0  0  0  0  0  0  0  0  0
   -2.3676   -1.9796    1.9908 H   0  0  0  0  0  0  0  0  0  0  0  0
   -2.3649   -2.8903    0.4717 H   0  0  0  0  0  0  0  0  0  0  0  0
   -0.8333   -2.4089    1.2234 H   0  0  0  0  0  0  0  0  0  0  0  0
  1  2  2  0
  1  5  1  0
  1  6  1  0
  2  3  2  0
  3  4  1  0
  3  7  1  0
  4  8  1  0
  4  9  1  0
  4 10  1  0
 11 12  1  0
 11 16  1  0
 11 17  1  0
 12 13  1  0
 12 18  1  0
 12 19  1  0
 13 14  1  0
 14 15  1  0
 14 20  1  0
 14 21  1  0
 15 22  1  0
 15 23  1  0
 15 24  1  0
M  RAD  1  11   2
M  END
>  <reaction>  (3) 
rmg_rxn_14050

>  <type>  (3) 
ts

>  <mol_properties>  (3) 
{"0": {"label": "*1", "atom_type": "Cd"}, "1": {"label": "*0", "atom_type": "Cdd"}, "4": {"label": "*2", "atom_type": "H0"}, "10": {"label": "*3", "atom_type": "Cs"}, "11": {"label": "*4", "atom_type": "Cs"}}

$$$$
