
     RDKit          3D

  9  8  0  0  0  0  0  0  0  0999 V2000
    0.8962   -0.7283   -0.8558 O   0  0  0  0  0  1  0  0  0  0  0  0
    0.7973    0.2288   -0.0642 N   0  0  0  0  0  0  0  0  0  0  0  0
   -0.2433    0.6309    0.5779 C   0  0  0  0  0  3  0  0  0  0  0  0
   -1.5496   -0.0609    0.4283 C   0  0  0  0  0  0  0  0  0  0  0  0
    1.6642    0.7755    0.1126 H   0  0  0  0  0  0  0  0  0  0  0  0
   -0.0905    1.4901    1.2161 H   0  0  0  0  0  0  0  0  0  0  0  0
   -1.8763   -0.0415   -0.6146 H   0  0  0  0  0  0  0  0  0  0  0  0
   -1.4583   -1.1138    0.7072 H   0  0  0  0  0  0  0  0  0  0  0  0
   -2.3100    0.4086    1.0490 H   0  0  0  0  0  0  0  0  0  0  0  0
  1  2  1  0
  2  3  1  0
  2  5  1  0
  3  4  1  0
  3  6  1  0
  4  7  1  0
  4  8  1  0
  4  9  1  0
M  CHG  2   1  -1   3   1
M  END
>  <reaction>  (1) 
rmg_rxn_2010

>  <type>  (1) 
r1h

>  <mol_properties>  (1) 
{"1": {"label": "donator", "atom_type": "N3s"}, "4": {"label": "d_hydrogen", "atom_type": "H0"}}

>  <electro_map>  (1) 
{"4": {"R": null, "A": null, "D": null}, "1": {"R": 1.0399999763415406, "A": null, "D": null}, "0": {"R": 1.2459755964078398, "A": 116.4623221255207, "D": null}, "2": {"R": 2.2806514843202432, "A": 54.826761826684944, "D": 359.735793461094}, "3": {"R": 1.4857872117793764, "A": 95.65106583407004, "D": 179.8848652690961}, "5": {"R": 2.270517683110265, "A": 23.358215668168185, "D": 179.97475280902682}, "6": {"R": 2.9809934621673317, "A": 18.37206577937794, "D": 69.6488935596767}, "7": {"R": 1.7526892026891545, "A": 73.04054087014515, "D": 338.150014597515}, "8": {"R": 1.777660702122004, "A": 60.44658252488772, "D": 60.08428967481679}}

$$$$

     RDKit          3D

 11 10  0  0  0  0  0  0  0  0999 V2000
   -1.5605    0.6884   -0.1432 H   0  0  0  0  0  0  0  0  0  0  0  0
   -0.5780    1.1460   -0.0505 C   0  0  0  0  0  0  0  0  0  0  0  0
    0.2879    0.0076   -0.4931 C   0  0  0  0  0  0  0  0  0  0  0  0
    0.3548   -1.1282    0.5199 C   0  0  0  0  0  0  0  0  0  0  0  0
   -0.5254    1.4276    0.9996 H   0  0  0  0  0  0  0  0  0  0  0  0
   -0.6710    1.9897   -0.7300 H   0  0  0  0  0  0  0  0  0  0  0  0
   -0.0820   -0.3753   -1.4498 H   0  0  0  0  0  0  0  0  0  0  0  0
    1.2988    0.3883   -0.6934 H   0  0  0  0  0  0  0  0  0  0  0  0
    0.7240   -0.7726    1.4848 H   0  0  0  0  0  0  0  0  0  0  0  0
   -0.6326   -1.5679    0.6704 H   0  0  0  0  0  0  0  0  0  0  0  0
    1.0202   -1.9206    0.1759 H   0  0  0  0  0  0  0  0  0  0  0  0
  1  2  1  0
  2  3  1  0
  2  5  1  0
  2  6  1  0
  3  4  1  0
  3  7  1  0
  3  8  1  0
  4  9  1  0
  4 10  1  0
  4 11  1  0
M  END
>  <reaction>  (2) 
rmg_rxn_2010

>  <type>  (2) 
r2h

>  <mol_properties>  (2) 
{"0": {"label": "a_hydrogen", "atom_type": "H0"}, "1": {"label": "acceptor", "atom_type": "Cs"}}

>  <electro_map>  (2) 
{"0": {"R": null, "A": null, "D": null}, "1": {"R": 1.0878592851326259, "A": null, "D": null}, "2": {"R": 1.4971836194024128, "A": 100.21271809801283, "D": null}, "3": {"R": 1.523405573583731, "A": 100.25320455936253, "D": 117.77376358202537}, "4": {"R": 2.745394057320053, "A": 53.70088900846182, "D": 343.77292621662235}, "5": {"R": 1.8243999513734404, "A": 98.43983781877601, "D": 13.020971446193164}, "6": {"R": 2.5412723256193903, "A": 87.89840686314719, "D": 4.974407055101259}, "7": {"R": 1.749786295785105, "A": 69.78018120517473, "D": 291.9837942777522}, "8": {"R": 2.5342332191178882, "A": 89.58123750376932, "D": 97.8243646501749}, "9": {"R": 1.7709186832578712, "A": 89.09539171469284, "D": 1.737999428846654}, "10": {"R": 1.7608571451397186, "A": 60.004588534912806, "D": 64.6752312773524}}

$$$$

     RDKit          3D

 19 17  0  0  0  0  0  0  0  0999 V2000
   -0.6629   -0.7576   -1.0996 O   0  0  0  0  0  1  0  0  0  0  0  0
   -0.7618    0.1995   -0.3080 N   0  0  0  0  0  0  0  0  0  0  0  0
   -1.8024    0.6016    0.3340 C   0  0  0  0  0  3  0  0  0  0  0  0
   -3.1087   -0.0902    0.1844 C   0  0  0  0  0  0  0  0  0  0  0  0
    0.2230    0.8206   -0.1072 H   0  0  0  0  0  0  0  0  0  0  0  0
   -1.6496    1.4608    0.9722 H   0  0  0  0  0  0  0  0  0  0  0  0
   -3.4355   -0.0708   -0.8585 H   0  0  0  0  0  0  0  0  0  0  0  0
   -3.0174   -1.1431    0.4634 H   0  0  0  0  0  0  0  0  0  0  0  0
   -3.8691    0.3793    0.8052 H   0  0  0  0  0  0  0  0  0  0  0  0
    1.5472    1.4373    0.0178 C   0  0  0  0  0  3  0  0  0  0  0  0
    2.4130    0.2988   -0.4248 C   0  0  0  0  0  0  0  0  0  0  0  0
    2.4799   -0.8370    0.5882 C   0  0  0  0  0  0  0  0  0  0  0  0
    1.5997    1.7189    1.0679 H   0  0  0  0  0  0  0  0  0  0  0  0
    1.4541    2.2809   -0.6617 H   0  0  0  0  0  0  0  0  0  0  0  0
    2.0432   -0.0840   -1.3815 H   0  0  0  0  0  0  0  0  0  0  0  0
    3.4239    0.6795   -0.6251 H   0  0  0  0  0  0  0  0  0  0  0  0
    2.8492   -0.4813    1.5531 H   0  0  0  0  0  0  0  0  0  0  0  0
    1.4925   -1.2766    0.7387 H   0  0  0  0  0  0  0  0  0  0  0  0
    3.1453   -1.6293    0.2442 H   0  0  0  0  0  0  0  0  0  0  0  0
  1  2  1  0
  2  3  1  0
  2  5  1  0
  3  4  1  0
  3  6  1  0
  4  7  1  0
  4  8  1  0
  4  9  1  0
 10 11  1  0
 10 13  1  0
 10 14  1  0
 11 12  1  0
 11 15  1  0
 11 16  1  0
 12 17  1  0
 12 18  1  0
 12 19  1  0
M  CHG  2   1  -1   3   1
M  RAD  1  10   2
M  END
>  <reaction>  (3) 
rmg_rxn_2010

>  <type>  (3) 
ts

>  <mol_properties>  (3) 
{"1": {"label": "*1", "atom_type": "N3s"}, "2": {"label": "*0", "atom_type": "Csc"}, "4": {"label": "*2", "atom_type": "H0"}, "9": {"label": "*3", "atom_type": "Cs"}, "10": {"label": "*4", "atom_type": "Cs"}}

$$$$
