
     RDKit          3D

 13 12  0  0  0  0  0  0  0  0999 V2000
    1.5848    0.6492    0.1071 N   0  0  0  0  0  2  0  0  0  0  0  0
    0.4384    1.0190    0.6313 N   0  0  0  0  0  0  0  0  0  0  0  0
   -0.6541    0.3194    0.6701 C   0  0  0  0  0  3  0  0  0  0  0  0
   -0.7018   -1.0454    0.0906 C   0  0  0  0  0  0  0  0  0  0  0  0
   -0.7900   -1.0496   -1.4407 C   0  0  0  0  0  0  0  0  0  0  0  0
    2.2264    1.4589    0.2270 H   0  0  0  0  0  0  0  0  0  0  0  0
    0.4454    1.9500    1.0501 H   0  0  0  0  0  0  0  0  0  0  0  0
   -1.5085    0.8078    1.1146 H   0  0  0  0  0  0  0  0  0  0  0  0
   -1.5523   -1.5787    0.5166 H   0  0  0  0  0  0  0  0  0  0  0  0
    0.2131   -1.5676    0.3918 H   0  0  0  0  0  0  0  0  0  0  0  0
    0.0692   -0.5368   -1.8735 H   0  0  0  0  0  0  0  0  0  0  0  0
   -1.6992   -0.5538   -1.7839 H   0  0  0  0  0  0  0  0  0  0  0  0
   -0.7987   -2.0739   -1.8142 H   0  0  0  0  0  0  0  0  0  0  0  0
  1  2  1  0
  1  6  1  0
  2  3  1  0
  2  7  1  0
  3  4  1  0
  3  8  1  0
  4  5  1  0
  4  9  1  0
  4 10  1  0
  5 11  1  0
  5 12  1  0
  5 13  1  0
M  CHG  2   1  -1   3   1
M  END
>  <reaction>  (1) 
rmg_rxn_2520

>  <type>  (1) 
r1h

>  <mol_properties>  (1) 
{"0": {"label": "donator", "atom_type": "N1sc"}, "5": {"label": "d_hydrogen", "atom_type": "H0"}}

>  <electro_map>  (1) 
{"5": {"R": null, "A": null, "D": null}, "0": {"R": 1.0399999190293794, "A": null, "D": null}, "1": {"R": 1.31369608920011, "A": 105.8549231594165, "D": null}, "2": {"R": 1.2978974873129396, "A": 158.52056862849636, "D": 356.4602781347966}, "3": {"R": 1.4835185742528465, "A": 120.75073375470382, "D": 0.1259491810061166}, "4": {"R": 1.5338585879958915, "A": 113.22756629224048, "D": 283.29657779476946}, "6": {"R": 4.090038917934612, "A": 51.144350237449316, "D": 19.41363279664524}, "7": {"R": 2.2641929573083663, "A": 52.17193819453852, "D": 306.0777606856996}, "8": {"R": 2.460700420282836, "A": 119.84856971800735, "D": 35.25394253090155}, "9": {"R": 1.7699043604772, "A": 89.61414268092499, "D": 5.966262457286536}, "10": {"R": 2.492939706966127, "A": 90.52001165935934, "D": 280.3168126756748}, "11": {"R": 1.7707268252786348, "A": 90.44266511990213, "D": 359.3560658227476}, "12": {"R": 1.7670518629130174, "A": 59.89924927070306, "D": 295.00207731123913}}

$$$$

     RDKit          3D

  2  1  0  0  0  0  0  0  0  0999 V2000
    0.0172    0.0653    0.0411 O   0  0  0  0  0  1  0  0  0  0  0  0
   -0.1919   -0.7275   -0.4582 H   0  0  0  0  0  0  0  0  0  0  0  0
  1  2  1  0
M  RAD  1   1   2
M  END
>  <reaction>  (2) 
rmg_rxn_2520

>  <type>  (2) 
r2h

>  <mol_properties>  (2) 
{"0": {"label": "acceptor", "atom_type": "O2s"}, "1": {"label": "a_hydrogen", "atom_type": "H0"}}

>  <electro_map>  (2) 
{"1": {"R": null, "A": null, "D": null}, "0": {"R": 0.9599999917546908, "A": null, "D": null}}

$$$$

     RDKit          3D

 14 12  0  0  0  0  0  0  0  0999 V2000
    2.0571    2.1547    0.7994 O   0  0  0  0  0 15  0  0  0  0  0  0
    1.0792    0.1856   -0.0231 N   0  0  0  0  0  2  0  0  0  0  0  0
   -0.0672    0.5554    0.5012 N   0  0  0  0  0  0  0  0  0  0  0  0
   -1.1597   -0.1442    0.5400 C   0  0  0  0  0  3  0  0  0  0  0  0
   -1.2074   -1.5090   -0.0395 C   0  0  0  0  0  0  0  0  0  0  0  0
   -1.2956   -1.5132   -1.5709 C   0  0  0  0  0  0  0  0  0  0  0  0
    1.7664    1.0528    0.1054 H   0  0  0  0  0  0  0  0  0  0  0  0
   -0.0601    1.4864    0.9200 H   0  0  0  0  0  0  0  0  0  0  0  0
   -2.0140    0.3442    0.9845 H   0  0  0  0  0  0  0  0  0  0  0  0
   -2.0579   -2.0423    0.3865 H   0  0  0  0  0  0  0  0  0  0  0  0
   -0.2924   -2.0312    0.2617 H   0  0  0  0  0  0  0  0  0  0  0  0
   -0.4364   -1.0004   -2.0036 H   0  0  0  0  0  0  0  0  0  0  0  0
   -2.2047   -1.0174   -1.9140 H   0  0  0  0  0  0  0  0  0  0  0  0
   -1.3043   -2.5375   -1.9443 H   0  0  0  0  0  0  0  0  0  0  0  0
  2  3  1  0
  2  7  1  0
  3  4  1  0
  3  8  1  0
  4  5  1  0
  4  9  1  0
  5  6  1  0
  5 10  1  0
  5 11  1  0
  6 12  1  0
  6 13  1  0
  6 14  1  0
M  CHG  2   2  -1   4   1
M  END
>  <reaction>  (3) 
rmg_rxn_2520

>  <type>  (3) 
ts

>  <mol_properties>  (3) 
{"0": {"label": "*3", "atom_type": "O2s"}, "1": {"label": "*1", "atom_type": "N1sc"}, "2": {"label": "*0", "atom_type": "N3s"}, "6": {"label": "*2", "atom_type": "H0"}}

$$$$
