
     RDKit          3D

 10  9  0  0  0  0  0  0  0  0999 V2000
   -1.0687    1.5713    0.0202 C   0  0  0  0  0  0  0  0  0  0  0  0
   -0.4313    0.4600    0.2244 C   0  0  0  0  0  0  0  0  0  0  0  0
    0.2147   -0.6635    0.4148 C   0  0  0  0  0  0  0  0  0  0  0  0
    1.1282   -1.2636   -0.5650 C   0  0  0  0  0  0  0  0  0  0  0  0
   -2.0661    1.5786   -0.4049 H   0  0  0  0  0  0  0  0  0  0  0  0
   -0.6206    2.5266    0.2710 H   0  0  0  0  0  0  0  0  0  0  0  0
    0.1047   -1.1559    1.3767 H   0  0  0  0  0  0  0  0  0  0  0  0
    2.1441   -0.9801   -0.2982 H   0  0  0  0  0  0  0  0  0  0  0  0
    1.0030   -0.8950   -1.5803 H   0  0  0  0  0  0  0  0  0  0  0  0
    1.1741   -2.3503   -0.5224 H   0  0  0  0  0  0  0  0  0  0  0  0
  1  2  2  0
  1  5  1  0
  1  6  1  0
  2  3  2  0
  3  4  1  0
  3  7  1  0
  4  8  1  0
  4  9  1  0
  4 10  1  0
M  END
>  <reaction>  (1) 
rmg_rxn_14186

>  <type>  (1) 
r1h

>  <mol_properties>  (1) 
{"3": {"label": "donator", "atom_type": "Cs"}, "7": {"label": "d_hydrogen", "atom_type": "H0"}}

>  <electro_map>  (1) 
{"7": {"R": null, "A": null, "D": null}, "3": {"R": 1.0879250868538781, "A": null, "D": null}, "2": {"R": 1.46790256807846, "A": 108.10918048808209, "D": null}, "1": {"R": 1.3098762262999157, "A": 122.54270509597983, "D": 257.06928400511043}, "0": {"R": 1.0, "A": 90.0, "D": 180.0}, "4": {"R": 1.2972694164888088, "A": 90.0, "D": 180.0}, "5": {"R": 1.0842691683175418, "A": 121.19601242780585, "D": 92.07316697364392}, "6": {"R": 1.856099938900062, "A": 31.15756717543815, "D": 179.91681326614517}, "8": {"R": 3.9126991440666608, "A": 76.50084757091108, "D": 345.658462932228}, "9": {"R": 3.1014312024515456, "A": 72.84763598840813, "D": 80.86732339313923}}

$$$$

     RDKit          3D

  9  8  0  0  0  0  0  0  0  0999 V2000
   -0.2218    1.1532   -0.5642 C   0  0  0  0  0  0  0  0  0  0  0  0
    0.0130    0.1248    0.5292 C   0  0  0  0  0  0  0  0  0  0  0  0
    0.2625   -1.1546    0.0575 O   0  0  0  0  0  0  0  0  0  0  0  0
   -0.3413    2.1518   -0.1375 H   0  0  0  0  0  0  0  0  0  0  0  0
    0.6178    1.1685   -1.2601 H   0  0  0  0  0  0  0  0  0  0  0  0
   -1.1283    0.9129   -1.1236 H   0  0  0  0  0  0  0  0  0  0  0  0
    0.8982    0.3901    1.1252 H   0  0  0  0  0  0  0  0  0  0  0  0
   -0.8292    0.1216    1.2393 H   0  0  0  0  0  0  0  0  0  0  0  0
   -0.5827   -1.5058   -0.2322 H   0  0  0  0  0  0  0  0  0  0  0  0
  1  2  1  0
  1  4  1  0
  1  5  1  0
  1  6  1  0
  2  3  1  0
  2  7  1  0
  2  8  1  0
  3  9  1  0
M  END
>  <reaction>  (2) 
rmg_rxn_14186

>  <type>  (2) 
r2h

>  <mol_properties>  (2) 
{"2": {"label": "acceptor", "atom_type": "O2s"}, "8": {"label": "a_hydrogen", "atom_type": "H0"}}

>  <electro_map>  (2) 
{"8": {"R": null, "A": null, "D": null}, "2": {"R": 0.9599999607106042, "A": null, "D": null}, "1": {"R": 1.3862585459274621, "A": 106.36880541387369, "D": null}, "0": {"R": 1.5193315781759915, "A": 104.15653062678905, "D": 114.30059893939563}, "3": {"R": 1.0924291537116773, "A": 110.76671106188685, "D": 184.06303781547317}, "4": {"R": 1.7739137522601722, "A": 35.61885146379954, "D": 121.54859669513243}, "5": {"R": 1.7699999325423579, "A": 59.86023880488067, "D": 37.00793783187952}, "6": {"R": 3.0720297012880105, "A": 55.269527625261425, "D": 294.8212659452673}, "7": {"R": 1.7518021976778138, "A": 54.780648012627594, "D": 180.85554213613753}}

$$$$

     RDKit          3D

 18 16  0  0  0  0  0  0  0  0999 V2000
    1.5239    1.5231   -0.5204 C   0  0  0  0  0  0  0  0  0  0  0  0
    1.7587    0.4947    0.5730 C   0  0  0  0  0  0  0  0  0  0  0  0
    2.0082   -0.7847    0.1013 O   0  0  0  0  0  1  0  0  0  0  0  0
    1.4044    2.5217   -0.0938 H   0  0  0  0  0  0  0  0  0  0  0  0
    2.3635    1.5385   -1.2164 H   0  0  0  0  0  0  0  0  0  0  0  0
    0.6174    1.2828   -1.0798 H   0  0  0  0  0  0  0  0  0  0  0  0
    2.6439    0.7601    1.1690 H   0  0  0  0  0  0  0  0  0  0  0  0
    0.9165    0.4916    1.2831 H   0  0  0  0  0  0  0  0  0  0  0  0
   -2.4965    1.2480   -0.0127 C   0  0  0  0  0  0  0  0  0  0  0  0
   -1.8591    0.1367    0.1916 C   0  0  0  0  0  0  0  0  0  0  0  0
   -1.2131   -0.9868    0.3820 C   0  0  0  0  0  0  0  0  0  0  0  0
   -0.2996   -1.5869   -0.5979 C   0  0  0  0  0  0  0  0  0  0  0  0
   -3.4939    1.2553   -0.4377 H   0  0  0  0  0  0  0  0  0  0  0  0
   -2.0484    2.2033    0.2382 H   0  0  0  0  0  0  0  0  0  0  0  0
   -1.3231   -1.4791    1.3438 H   0  0  0  0  0  0  0  0  0  0  0  0
    0.8484   -1.2665   -0.2963 H   0  0  0  0  0  0  0  0  0  0  0  0
   -0.4248   -1.2182   -1.6132 H   0  0  0  0  0  0  0  0  0  0  0  0
   -0.2537   -2.6736   -0.5552 H   0  0  0  0  0  0  0  0  0  0  0  0
  1  2  1  0
  1  4  1  0
  1  5  1  0
  1  6  1  0
  2  3  1  0
  2  7  1  0
  2  8  1  0
  9 10  2  0
  9 13  1  0
  9 14  1  0
 10 11  2  0
 11 12  1  0
 11 15  1  0
 12 16  1  0
 12 17  1  0
 12 18  1  0
M  RAD  1   3   2
M  END
>  <reaction>  (3) 
rmg_rxn_14186

>  <type>  (3) 
ts

>  <mol_properties>  (3) 
{"1": {"label": "*4", "atom_type": "Cs"}, "2": {"label": "*3", "atom_type": "O2s"}, "10": {"label": "*0", "atom_type": "Cd"}, "11": {"label": "*1", "atom_type": "Cs"}, "15": {"label": "*2", "atom_type": "H0"}}

$$$$
