
     RDKit          3D

 10  9  0  0  0  0  0  0  0  0999 V2000
    0.2135   -0.4041   -1.8493 C   0  0  0  0  0  0  0  0  0  0  0  0
    0.2900   -0.2024   -0.5684 C   0  0  0  0  0  0  0  0  0  0  0  0
    0.3654    0.0132    0.7169 C   0  0  0  0  0  0  0  0  0  0  0  0
   -0.7381    0.5452    1.5430 C   0  0  0  0  0  0  0  0  0  0  0  0
    0.5053    0.3633   -2.5576 H   0  0  0  0  0  0  0  0  0  0  0  0
   -0.1429   -1.3469   -2.2491 H   0  0  0  0  0  0  0  0  0  0  0  0
    1.2914   -0.2482    1.2215 H   0  0  0  0  0  0  0  0  0  0  0  0
   -1.1850   -0.2762    2.0999 H   0  0  0  0  0  0  0  0  0  0  0  0
   -1.5587    0.9636    0.9645 H   0  0  0  0  0  0  0  0  0  0  0  0
   -0.4073    1.2296    2.3229 H   0  0  0  0  0  0  0  0  0  0  0  0
  1  2  2  0
  1  5  1  0
  1  6  1  0
  2  3  2  0
  3  4  1  0
  3  7  1  0
  4  8  1  0
  4  9  1  0
  4 10  1  0
M  END
>  <reaction>  (1) 
rmg_rxn_14156

>  <type>  (1) 
r1h

>  <mol_properties>  (1) 
{"3": {"label": "donator", "atom_type": "Cs"}, "7": {"label": "d_hydrogen", "atom_type": "H0"}}

>  <electro_map>  (1) 
{"7": {"R": null, "A": null, "D": null}, "3": {"R": 1.0883913377451486, "A": null, "D": null}, "2": {"R": 1.4774833108956662, "A": 108.72465381613377, "D": null}, "1": {"R": 1.3054447831625402, "A": 125.71133084712567, "D": 261.57857058297265}, "0": {"R": 1.0, "A": 90.0, "D": 180.0}, "4": {"R": 1.2989244009489131, "A": 90.0, "D": 180.0}, "5": {"R": 1.0843507989386998, "A": 120.97298327751903, "D": 91.66715637357024}, "6": {"R": 1.8547965990612447, "A": 31.213214292856676, "D": 179.89720201984127}, "8": {"R": 3.9127436260385715, "A": 76.1438256683734, "D": 345.40442234302446}, "9": {"R": 3.1076029419669875, "A": 72.54046387629917, "D": 82.26720856201669}}

$$$$

     RDKit          3D

  4  3  0  0  0  0  0  0  0  0999 V2000
   -0.0142   -0.0234    0.0167 C   0  0  0  0  0  3  0  0  0  0  0  0
    0.0356   -0.9892   -0.4693 H   0  0  0  0  0  0  0  0  0  0  0  0
   -0.4691    0.1798    0.9775 H   0  0  0  0  0  0  0  0  0  0  0  0
    0.4418    0.7990   -0.5191 H   0  0  0  0  0  0  0  0  0  0  0  0
  1  2  1  0
  1  3  1  0
  1  4  1  0
M  RAD  1   1   2
M  END
>  <reaction>  (2) 
rmg_rxn_14156

>  <type>  (2) 
r2h

>  <mol_properties>  (2) 
{"0": {"label": "acceptor", "atom_type": "Cs"}, "3": {"label": "a_hydrogen", "atom_type": "H0"}}

>  <electro_map>  (2) 
{"3": {"R": null, "A": null, "D": null}, "0": {"R": 1.082292022647096, "A": null, "D": null}, "1": {"R": 1.082292022647096, "A": 115.87115885354066, "D": null}, "2": {"R": 1.927238980442757, "A": 59.145176608732434, "D": 359.823870937759}}

$$$$

     RDKit          3D

 13 11  0  0  0  0  0  0  0  0999 V2000
   -1.4583   -1.1424    2.2911 C   0  0  0  0  0  2  0  0  0  0  0  0
   -1.4086   -2.1081    1.8051 H   0  0  0  0  0  0  0  0  0  0  0  0
   -1.9133   -0.9392    3.2518 H   0  0  0  0  0  0  0  0  0  0  0  0
    0.6177   -0.0462   -2.4587 C   0  0  0  0  0  0  0  0  0  0  0  0
    0.6942    0.1556   -1.1778 C   0  0  0  0  0  0  0  0  0  0  0  0
    0.7696    0.3711    0.1075 C   0  0  0  0  0  0  0  0  0  0  0  0
   -0.3339    0.9031    0.9336 C   0  0  0  0  0  0  0  0  0  0  0  0
    0.9095    0.7212   -3.1671 H   0  0  0  0  0  0  0  0  0  0  0  0
    0.2613   -0.9890   -2.8585 H   0  0  0  0  0  0  0  0  0  0  0  0
    1.6955    0.1098    0.6121 H   0  0  0  0  0  0  0  0  0  0  0  0
   -0.8420   -0.0307    1.5667 H   0  0  0  0  0  0  0  0  0  0  0  0
   -1.1545    1.3215    0.3551 H   0  0  0  0  0  0  0  0  0  0  0  0
   -0.0031    1.5875    1.7135 H   0  0  0  0  0  0  0  0  0  0  0  0
  1  2  1  0
  1  3  1  0
  4  5  2  0
  4  8  1  0
  4  9  1  0
  5  6  2  0
  6  7  1  0
  6 10  1  0
  7 11  1  0
  7 12  1  0
  7 13  1  0
M  RAD  1   1   3
M  END
>  <reaction>  (3) 
rmg_rxn_14156

>  <type>  (3) 
ts

>  <mol_properties>  (3) 
{"0": {"label": "*3", "atom_type": "Cs"}, "1": {"label": "*4", "atom_type": "H0"}, "5": {"label": "*0", "atom_type": "Cd"}, "6": {"label": "*1", "atom_type": "Cs"}, "10": {"label": "*2", "atom_type": "H0"}}

$$$$
