
     RDKit          3D

  5  4  0  0  0  0  0  0  0  0999 V2000
    0.1606    0.0423   -1.0638 O   0  0  0  0  0  0  0  0  0  0  0  0
    0.4190   -0.0401    0.1849 N   0  0  0  0  0  0  0  0  0  0  0  0
   -0.5192   -0.0163    0.9826 N   0  0  0  0  0  0  0  0  0  0  0  0
   -0.1069   -0.0876    1.9130 H   0  0  0  0  0  0  0  0  0  0  0  0
   -0.7803    0.1646   -1.2097 H   0  0  0  0  0  0  0  0  0  0  0  0
  1  2  1  0
  1  5  1  0
  2  3  2  3
  3  4  1  0
M  END
>  <reaction>  (1) 
rmg_rxn_14123

>  <type>  (1) 
r1h

>  <mol_properties>  (1) 
{"0": {"label": "donator", "atom_type": "O2s"}, "4": {"label": "d_hydrogen", "atom_type": "H0"}}

>  <electro_map>  (1) 
{"4": {"R": null, "A": null, "D": null}, "0": {"R": 0.9600000227987764, "A": null, "D": null}, "1": {"R": 1.2778484035867217, "A": 110.7878421629157, "D": null}, "2": {"R": 1.231686525369724, "A": 89.56066285094371, "D": 182.76993924099455}, "3": {"R": 1.0201650819704333, "A": 106.34631824739948, "D": 180.31490113534406}}

$$$$

     RDKit          3D

 10  9  0  0  0  0  0  0  0  0999 V2000
   -0.3886   -1.7331    0.6854 C   0  0  0  0  0  0  0  0  0  0  0  0
   -0.0455    1.8081   -0.7906 C   0  0  0  0  0  0  0  0  0  0  0  0
    0.3508   -0.5118    0.2817 C   0  0  0  0  0  0  0  0  0  0  0  0
    0.1088    0.6161   -0.2477 C   0  0  0  0  0  0  0  0  0  0  0  0
   -0.3173   -1.8657    1.7651 H   0  0  0  0  0  0  0  0  0  0  0  0
   -1.4385   -1.6555    0.3987 H   0  0  0  0  0  0  0  0  0  0  0  0
    0.0402   -2.6167    0.2105 H   0  0  0  0  0  0  0  0  0  0  0  0
   -0.2906    2.6704   -0.1823 H   0  0  0  0  0  0  0  0  0  0  0  0
    0.0534    1.9528   -1.8597 H   0  0  0  0  0  0  0  0  0  0  0  0
    1.4197   -0.6016    0.4752 H   0  0  0  0  0  0  0  0  0  0  0  0
  1  3  1  0
  1  5  1  0
  1  6  1  0
  1  7  1  0
  2  4  2  0
  2  8  1  0
  2  9  1  0
  3  4  2  0
  3 10  1  0
M  END
>  <reaction>  (2) 
rmg_rxn_14123

>  <type>  (2) 
r2h

>  <mol_properties>  (2) 
{"2": {"label": "acceptor", "atom_type": "Cd"}, "9": {"label": "a_hydrogen", "atom_type": "H0"}}

>  <electro_map>  (2) 
{"9": {"R": null, "A": null, "D": null}, "2": {"R": 1.0900000456713745, "A": null, "D": null}, "3": {"R": 1.269237308218591, "A": 109.52339532610044, "D": null}, "1": {"R": 1.318921050056579, "A": 143.5139402927738, "D": 179.8738474177231}, "0": {"R": 3.851794005704086, "A": 11.974475144969956, "D": 179.58676044741}, "4": {"R": 1.0901928961096032, "A": 119.04696575114222, "D": 73.88495790686932}, "5": {"R": 1.7800437456820402, "A": 35.32710374056108, "D": 95.62420016337872}, "6": {"R": 1.7737422462815438, "A": 59.48913829323472, "D": 36.81726927739851}, "7": {"R": 5.3120635807069965, "A": 54.30624471363271, "D": 276.79043859789124}, "8": {"R": 1.856655985814619, "A": 70.76605226313306, "D": 249.57884432496482}}

$$$$

     RDKit          3D

 14 12  0  0  0  0  0  0  0  0999 V2000
    2.1105   -0.3967   -0.0006 O   0  0  0  0  0  0  0  0  0  0  0  0
    2.3688   -0.4791    1.2481 N   0  0  0  0  0  0  0  0  0  0  0  0
    1.4307   -0.4553    2.0458 N   0  0  0  0  0  0  0  0  0  0  0  0
   -1.1361   -1.3517   -0.0194 C   0  0  0  0  0  0  0  0  0  0  0  0
   -0.7929    2.1895   -1.4954 C   0  0  0  0  0  0  0  0  0  0  0  0
   -0.3966   -0.1305   -0.4230 C   0  0  0  0  0  3  0  0  0  0  0  0
   -0.6386    0.9974   -0.9524 C   0  0  0  0  0  0  0  0  0  0  0  0
   -1.0647   -1.4843    1.0604 H   0  0  0  0  0  0  0  0  0  0  0  0
   -2.1860   -1.2742   -0.3061 H   0  0  0  0  0  0  0  0  0  0  0  0
   -0.7072   -2.2354   -0.4942 H   0  0  0  0  0  0  0  0  0  0  0  0
   -1.0380    3.0518   -0.8870 H   0  0  0  0  0  0  0  0  0  0  0  0
   -0.6940    2.3342   -2.5645 H   0  0  0  0  0  0  0  0  0  0  0  0
    1.8430   -0.5265    2.9762 H   0  0  0  0  0  0  0  0  0  0  0  0
    0.9011   -0.2395   -0.1882 H   0  0  0  0  0  0  0  0  0  0  0  0
  1  2  1  0
  1 14  1  0
  2  3  2  3
  3 13  1  0
  4  6  1  0
  4  8  1  0
  4  9  1  0
  4 10  1  0
  5  7  2  0
  5 11  1  0
  5 12  1  0
  6  7  2  0
M  RAD  1   6   2
M  END
>  <reaction>  (3) 
rmg_rxn_14123

>  <type>  (3) 
ts

>  <mol_properties>  (3) 
{"0": {"label": "*1", "atom_type": "O2s"}, "1": {"label": "*0", "atom_type": "N3d"}, "5": {"label": "*3", "atom_type": "Cd"}, "6": {"label": "*4", "atom_type": "Cdd"}, "13": {"label": "*2", "atom_type": "H0"}}

$$$$
