
     RDKit          3D

 10  9  0  0  0  0  0  0  0  0999 V2000
    0.6155    0.1026   -1.8588 C   0  0  0  0  0  0  0  0  0  0  0  0
    0.3324   -0.0065   -0.5810 C   0  0  0  0  0  0  0  0  0  0  0  0
    0.1498   -0.1651    0.6739 C   0  0  0  0  0  0  0  0  0  0  0  0
   -0.9922    0.0654    1.6013 C   0  0  0  0  0  0  0  0  0  0  0  0
    1.0362    1.0151   -2.2646 H   0  0  0  0  0  0  0  0  0  0  0  0
    0.4156   -0.7133   -2.5436 H   0  0  0  0  0  0  0  0  0  0  0  0
    1.0293   -0.5725    1.1725 H   0  0  0  0  0  0  0  0  0  0  0  0
   -1.2817   -0.8694    2.0838 H   0  0  0  0  0  0  0  0  0  0  0  0
   -1.8528    0.4643    1.0635 H   0  0  0  0  0  0  0  0  0  0  0  0
   -0.7112    0.7690    2.3864 H   0  0  0  0  0  0  0  0  0  0  0  0
  1  2  2  0
  1  5  1  0
  1  6  1  0
  2  3  2  0
  3  4  1  0
  3  7  1  0
  4  8  1  0
  4  9  1  0
  4 10  1  0
M  END
>  <reaction>  (1) 
rmg_rxn_13936

>  <type>  (1) 
r1h

>  <mol_properties>  (1) 
{"2": {"label": "donator", "atom_type": "Cd"}, "6": {"label": "d_hydrogen", "atom_type": "H0"}}

>  <electro_map>  (1) 
{"6": {"R": null, "A": null, "D": null}, "2": {"R": 1.0900001003545312, "A": null, "D": null}, "1": {"R": 1.2779326874821504, "A": 112.3527890960047, "D": null}, "0": {"R": 1.3133028844427723, "A": 144.4528981971035, "D": 181.19792941419507}, "3": {"R": 3.81552666764706, "A": 13.107329555917977, "D": 168.73581686999913}, "4": {"R": 4.467797451267431, "A": 12.031454547143682, "D": 95.86639614088622}, "5": {"R": 1.8575187842342158, "A": 77.32172034370609, "D": 8.632970656399321}, "7": {"R": 4.931368920423749, "A": 90.19916214491998, "D": 356.8874153217923}, "8": {"R": 1.7736431792382312, "A": 63.07523449698803, "D": 55.56987120155831}, "9": {"R": 1.7737799494488522, "A": 59.529825648819894, "D": 251.54447634071727}}

$$$$

     RDKit          3D

 14 13  0  0  0  0  0  0  0  0999 V2000
   -1.5863    2.3161    0.5253 H   0  0  0  0  0  0  0  0  0  0  0  0
    1.6975   -1.4272   -0.6985 C   0  0  0  0  0  0  0  0  0  0  0  0
    0.8022   -1.6101    0.2578 C   0  0  0  0  0  0  0  0  0  0  0  0
   -0.5194   -0.9063    0.3608 C   0  0  0  0  0  0  0  0  0  0  0  0
   -0.7043    0.1074   -0.5988 O   0  0  0  0  0  0  0  0  0  0  0  0
   -0.1764    1.3522   -0.2305 C   0  0  0  0  0  0  0  0  0  0  0  0
   -0.7698    1.9287    0.8490 O   0  0  0  0  0  0  0  0  0  0  0  0
    2.6287   -1.9785   -0.7088 H   0  0  0  0  0  0  0  0  0  0  0  0
    1.5203   -0.7263   -1.5053 H   0  0  0  0  0  0  0  0  0  0  0  0
    0.9968   -2.3280    1.0504 H   0  0  0  0  0  0  0  0  0  0  0  0
   -0.6472   -0.5008    1.3715 H   0  0  0  0  0  0  0  0  0  0  0  0
   -1.3256   -1.6302    0.2124 H   0  0  0  0  0  0  0  0  0  0  0  0
   -0.2648    1.9799   -1.1297 H   0  0  0  0  0  0  0  0  0  0  0  0
    0.8936    1.2664    0.0269 H   0  0  0  0  0  0  0  0  0  0  0  0
  1  7  1  0
  2  3  2  3
  2  8  1  0
  2  9  1  0
  3  4  1  0
  3 10  1  0
  4  5  1  0
  4 11  1  0
  4 12  1  0
  5  6  1  0
  6  7  1  0
  6 13  1  0
  6 14  1  0
M  END
>  <reaction>  (2) 
rmg_rxn_13936

>  <type>  (2) 
r2h

>  <mol_properties>  (2) 
{"0": {"label": "a_hydrogen", "atom_type": "H0"}, "6": {"label": "acceptor", "atom_type": "O2s"}}

>  <electro_map>  (2) 
{"0": {"R": null, "A": null, "D": null}, "6": {"R": 0.9599999607106042, "A": null, "D": null}, "5": {"R": 1.360042846439518, "A": 105.93000027258202, "D": null}, "4": {"R": 1.4014537824399296, "A": 106.28545494870208, "D": 111.90217488580784}, "3": {"R": 1.4080350354912905, "A": 114.26003211752965, "D": 295.1410637826353}, "2": {"R": 1.5008432084598327, "A": 113.98444858182984, "D": 274.41679775892214}, "1": {"R": 1.3226666201676724, "A": 125.50695516371584, "D": 353.83583227975555}, "7": {"R": 1.0822165430386894, "A": 121.2544942263872, "D": 180.4067208225091}, "8": {"R": 1.852294262209295, "A": 31.21918556636507, "D": 179.4336230240868}, "9": {"R": 3.0612128530657423, "A": 52.38353798943308, "D": 359.4426519284126}, "10": {"R": 2.4787526359294008, "A": 80.55608991569275, "D": 161.1128962163085}, "11": {"R": 1.7548429371034826, "A": 72.32696550977113, "D": 77.81139377481615}, "12": {"R": 3.994865698627833, "A": 62.461486196874255, "D": 248.75475422300082}, "13": {"R": 1.7857282460893162, "A": 66.02066290303698, "D": 41.22220257679074}}

$$$$

     RDKit          3D

 23 21  0  0  0  0  0  0  0  0999 V2000
   -1.2775    2.0190   -2.3719 C   0  0  0  0  0  0  0  0  0  0  0  0
   -1.5605    1.9099   -1.0941 C   0  0  0  0  0  0  0  0  0  0  0  0
   -1.7431    1.7514    0.1608 C   0  0  0  0  0  0  0  0  0  0  0  0
   -2.8852    1.9819    1.0882 C   0  0  0  0  0  0  0  0  0  0  0  0
   -0.8568    2.9315   -2.7777 H   0  0  0  0  0  0  0  0  0  0  0  0
   -1.4773    1.2031   -3.0567 H   0  0  0  0  0  0  0  0  0  0  0  0
   -0.7548    1.2935    0.7211 H   0  0  0  0  0  0  0  0  0  0  0  0
   -3.1747    1.0471    1.5707 H   0  0  0  0  0  0  0  0  0  0  0  0
   -3.7457    2.3807    0.5503 H   0  0  0  0  0  0  0  0  0  0  0  0
   -2.6041    2.6854    1.8733 H   0  0  0  0  0  0  0  0  0  0  0  0
    2.8283   -2.5918   -0.3841 C   0  0  0  0  0  0  0  0  0  0  0  0
    1.9331   -2.7747    0.5723 C   0  0  0  0  0  0  0  0  0  0  0  0
    0.6115   -2.0709    0.6753 C   0  0  0  0  0  0  0  0  0  0  0  0
    0.4265   -1.0573   -0.2843 O   0  0  0  0  0  0  0  0  0  0  0  0
    0.9544    0.1876    0.0840 C   0  0  0  0  0  0  0  0  0  0  0  0
    0.3610    0.7641    1.1635 O   0  0  0  0  0  1  0  0  0  0  0  0
    3.7595   -3.1431   -0.3943 H   0  0  0  0  0  0  0  0  0  0  0  0
    2.6511   -1.8910   -1.1909 H   0  0  0  0  0  0  0  0  0  0  0  0
    2.1276   -3.4926    1.3648 H   0  0  0  0  0  0  0  0  0  0  0  0
    0.4837   -1.6654    1.6860 H   0  0  0  0  0  0  0  0  0  0  0  0
   -0.1948   -2.7948    0.5268 H   0  0  0  0  0  0  0  0  0  0  0  0
    0.8660    0.8153   -0.8153 H   0  0  0  0  0  0  0  0  0  0  0  0
    2.0245    0.1017    0.3413 H   0  0  0  0  0  0  0  0  0  0  0  0
  1  2  2  0
  1  5  1  0
  1  6  1  0
  2  3  2  0
  3  4  1  0
  3  7  1  0
  4  8  1  0
  4  9  1  0
  4 10  1  0
 11 12  2  3
 11 17  1  0
 11 18  1  0
 12 13  1  0
 12 19  1  0
 13 14  1  0
 13 20  1  0
 13 21  1  0
 14 15  1  0
 15 16  1  0
 15 22  1  0
 15 23  1  0
M  RAD  1  16   2
M  END
>  <reaction>  (3) 
rmg_rxn_13936

>  <type>  (3) 
ts

>  <mol_properties>  (3) 
{"1": {"label": "*0", "atom_type": "Cdd"}, "2": {"label": "*1", "atom_type": "Cd"}, "6": {"label": "*2", "atom_type": "H0"}, "14": {"label": "*4", "atom_type": "Cs"}, "15": {"label": "*3", "atom_type": "O2s"}}

$$$$
