
     RDKit          3D

  9  8  0  0  0  0  0  0  0  0999 V2000
   -0.7528   -0.4289   -1.6977 C   0  0  0  0  0  0  0  0  0  0  0  0
    0.0906   -0.4277   -0.4703 C   0  0  0  0  0  0  0  0  0  0  0  0
   -0.1145    0.4266    0.4445 N   0  0  0  0  0  0  0  0  0  0  0  0
    0.7031    0.3489    1.4999 O   0  0  0  0  0  0  0  0  0  0  0  0
   -0.1356   -0.2878   -2.5882 H   0  0  0  0  0  0  0  0  0  0  0  0
   -1.2665   -1.3867   -1.8101 H   0  0  0  0  0  0  0  0  0  0  0  0
   -1.4940    0.3675   -1.6511 H   0  0  0  0  0  0  0  0  0  0  0  0
    0.8868   -1.1648   -0.3637 H   0  0  0  0  0  0  0  0  0  0  0  0
    0.4011    1.0363    2.0980 H   0  0  0  0  0  0  0  0  0  0  0  0
  1  2  1  0
  1  5  1  0
  1  6  1  0
  1  7  1  0
  2  3  2  3
  2  8  1  0
  3  4  1  0
  4  9  1  0
M  END
>  <reaction>  (1) 
rmg_rxn_2736

>  <type>  (1) 
r1h

>  <mol_properties>  (1) 
{"3": {"label": "donator", "atom_type": "O2s"}, "8": {"label": "d_hydrogen", "atom_type": "H0"}}

>  <electro_map>  (1) 
{"8": {"R": null, "A": null, "D": null}, "3": {"R": 0.9600000848869445, "A": null, "D": null}, "2": {"R": 1.3372397071469357, "A": 104.9390791998136, "D": null}, "1": {"R": 1.2683406470125913, "A": 145.8666528465846, "D": 2.5338518045414777}, "0": {"R": 1.4892735014542458, "A": 120.22889936435702, "D": 180.47136187701838}, "4": {"R": 1.092591407757875, "A": 110.59683213799009, "D": 120.87328404299858}, "5": {"R": 1.758387763942114, "A": 36.42084669316437, "D": 120.61834764394969}, "6": {"R": 1.776019598710975, "A": 60.31148760273115, "D": 36.1965561054574}, "7": {"R": 3.110178474628581, "A": 56.79636014662934, "D": 292.01172741690743}}

$$$$

     RDKit          3D

  9  8  0  0  0  0  0  0  0  0999 V2000
    0.2654   -1.1026    1.3345 C   0  0  0  0  0  0  0  0  0  0  0  0
   -0.6651   -0.3381    0.4460 C   0  0  0  0  0  0  0  0  0  0  0  0
    0.1589    0.7064   -0.7891 S   0  0  0  0  0  0  0  0  0  0  0  0
    1.1269   -0.5489    1.7018 H   0  0  0  0  0  0  0  0  0  0  0  0
   -0.2258   -1.7062    2.0973 H   0  0  0  0  0  0  0  0  0  0  0  0
   -1.2691    0.3519    1.0442 H   0  0  0  0  0  0  0  0  0  0  0  0
   -1.3572   -1.0112   -0.0610 H   0  0  0  0  0  0  0  0  0  0  0  0
    0.6212   -0.3058   -1.5352 H   0  0  0  0  0  0  0  0  0  0  0  0
    0.7251   -1.8728    0.7173 H   0  0  0  0  0  0  0  0  0  0  0  0
  1  2  1  0
  1  4  1  0
  1  5  1  0
  1  9  1  0
  2  3  1  0
  2  6  1  0
  2  7  1  0
  3  8  1  0
M  END
>  <reaction>  (2) 
rmg_rxn_2736

>  <type>  (2) 
r2h

>  <mol_properties>  (2) 
{"0": {"label": "acceptor", "atom_type": "Cs"}, "8": {"label": "a_hydrogen", "atom_type": "H0"}}

>  <electro_map>  (2) 
{"8": {"R": null, "A": null, "D": null}, "0": {"R": 1.0887972274680509, "A": null, "D": null}, "1": {"R": 1.496663674745918, "A": 106.69362634310374, "D": null}, "2": {"R": 1.8152860078801007, "A": 102.06668528599292, "D": 118.70310660736357}, "7": {"R": 1.339763583351291, "A": 95.78562066457991, "D": 69.84420358342483}, "3": {"R": 3.28526946427243, "A": 63.918155187739075, "D": 312.0733741698097}, "4": {"R": 1.8235507044100983, "A": 98.42328544584542, "D": 100.84046806785244}, "5": {"R": 2.5363892553010743, "A": 72.5512631195428, "D": 301.17728212763706}, "6": {"R": 1.7570630319586593, "A": 69.6535871751357, "D": 108.83930182431814}}

$$$$

     RDKit          3D

 17 15  0  0  0  0  0  0  0  0999 V2000
    0.4778    0.5639    2.1445 C   0  0  0  0  0  3  0  0  0  0  0  0
   -0.4527    1.3285    1.2560 C   0  0  0  0  0  0  0  0  0  0  0  0
    0.3712    2.3729    0.0209 S   0  0  0  0  0  0  0  0  0  0  0  0
    1.3392    1.1176    2.5118 H   0  0  0  0  0  0  0  0  0  0  0  0
   -0.0134   -0.0396    2.9073 H   0  0  0  0  0  0  0  0  0  0  0  0
   -1.0568    2.0184    1.8542 H   0  0  0  0  0  0  0  0  0  0  0  0
   -1.1449    0.6553    0.7490 H   0  0  0  0  0  0  0  0  0  0  0  0
    0.8336    1.3607   -0.7252 H   0  0  0  0  0  0  0  0  0  0  0  0
   -0.0435   -2.0062   -2.5484 C   0  0  0  0  0  0  0  0  0  0  0  0
    0.7999   -2.0049   -1.3210 C   0  0  0  0  0  0  0  0  0  0  0  0
    0.5948   -1.1506   -0.4062 N   0  0  0  0  0  0  0  0  0  0  0  0
    1.4123   -1.2283    0.6492 O   0  0  0  0  0  0  0  0  0  0  0  0
    0.5736   -1.8650   -3.4389 H   0  0  0  0  0  0  0  0  0  0  0  0
   -0.5572   -2.9639   -2.6608 H   0  0  0  0  0  0  0  0  0  0  0  0
   -0.7847   -1.2097   -2.5018 H   0  0  0  0  0  0  0  0  0  0  0  0
    1.5960   -2.7420   -1.2144 H   0  0  0  0  0  0  0  0  0  0  0  0
    1.0353   -0.3701    1.3959 H   0  0  0  0  0  0  0  0  0  0  0  0
  1  2  1  0
  1  4  1  0
  1  5  1  0
  2  3  1  0
  2  6  1  0
  2  7  1  0
  3  8  1  0
  9 10  1  0
  9 13  1  0
  9 14  1  0
  9 15  1  0
 10 11  2  3
 10 16  1  0
 11 12  1  0
 12 17  1  0
M  RAD  1   1   2
M  END
>  <reaction>  (3) 
rmg_rxn_2736

>  <type>  (3) 
ts

>  <mol_properties>  (3) 
{"0": {"label": "*3", "atom_type": "Cs"}, "1": {"label": "*4", "atom_type": "Cs"}, "10": {"label": "*0", "atom_type": "N3d"}, "11": {"label": "*1", "atom_type": "O2s"}, "16": {"label": "*2", "atom_type": "H0"}}

$$$$
