
     RDKit          3D

 10  9  0  0  0  0  0  0  0  0999 V2000
    0.3058   -1.9353   -0.1607 C   0  0  0  0  0  0  0  0  0  0  0  0
   -0.0134   -0.6591   -0.1215 C   0  0  0  0  0  0  0  0  0  0  0  0
   -0.4136    0.5520   -0.1318 C   0  0  0  0  0  0  0  0  0  0  0  0
    0.1175    1.8438    0.3777 C   0  0  0  0  0  0  0  0  0  0  0  0
    0.0287   -2.6071    0.6431 H   0  0  0  0  0  0  0  0  0  0  0  0
    0.8756   -2.3452   -0.9857 H   0  0  0  0  0  0  0  0  0  0  0  0
   -1.3725    0.7147   -0.6240 H   0  0  0  0  0  0  0  0  0  0  0  0
    1.0547    1.7057    0.9190 H   0  0  0  0  0  0  0  0  0  0  0  0
   -0.6047    2.3180    1.0464 H   0  0  0  0  0  0  0  0  0  0  0  0
    0.2938    2.5387   -0.4464 H   0  0  0  0  0  0  0  0  0  0  0  0
  1  2  2  0
  1  5  1  0
  1  6  1  0
  2  3  2  0
  3  4  1  0
  3  7  1  0
  4  8  1  0
  4  9  1  0
  4 10  1  0
M  END
>  <reaction>  (1) 
rmg_rxn_13855

>  <type>  (1) 
r1h

>  <mol_properties>  (1) 
{"2": {"label": "donator", "atom_type": "Cd"}, "6": {"label": "d_hydrogen", "atom_type": "H0"}}

>  <electro_map>  (1) 
{"6": {"R": null, "A": null, "D": null}, "2": {"R": 1.0899999909882152, "A": null, "D": null}, "1": {"R": 1.275588529926143, "A": 114.91642747261515, "D": null}, "0": {"R": 1.3160323792158501, "A": 145.5655051118673, "D": 179.62923931627068}, "3": {"R": 3.821858411177459, "A": 12.847813490308999, "D": 183.17853708540989}, "4": {"R": 4.4596481998752315, "A": 12.18066564667219, "D": 100.01447586905194}, "5": {"R": 1.854369534599188, "A": 78.32984683397892, "D": 8.526880076556873}, "7": {"R": 4.479933822347413, "A": 76.84955366861932, "D": 14.331633308370263}, "8": {"R": 1.7734026800425997, "A": 107.77944570368594, "D": 293.6670121416954}, "9": {"R": 1.7562463183381394, "A": 60.23800521824312, "D": 275.25627886586574}}

$$$$

     RDKit          3D

 14 14  0  0  0  0  0  0  0  0999 V2000
    1.7470    0.3962   -0.4487 H   0  0  0  0  0  0  0  0  0  0  0  0
    0.7663    0.6576   -0.8386 C   0  0  0  0  0  0  0  0  0  0  0  0
    0.1641   -0.4991   -1.2580 O   0  0  0  0  0  0  0  0  0  0  0  0
   -0.1143   -1.4074   -0.1973 C   0  0  0  0  0  0  0  0  0  0  0  0
   -0.8983   -0.7082    0.9002 C   0  0  0  0  0  0  0  0  0  0  0  0
   -0.1517    0.5522    1.3023 C   0  0  0  0  0  0  0  0  0  0  0  0
    0.1201    1.3504    0.1577 O   0  0  0  0  0  0  0  0  0  0  0  0
    0.9336    1.3133   -1.6896 H   0  0  0  0  0  0  0  0  0  0  0  0
   -0.6763   -2.2261   -0.6428 H   0  0  0  0  0  0  0  0  0  0  0  0
    0.8305   -1.8021    0.1930 H   0  0  0  0  0  0  0  0  0  0  0  0
   -1.8927   -0.4448    0.5341 H   0  0  0  0  0  0  0  0  0  0  0  0
   -1.0139   -1.3695    1.7613 H   0  0  0  0  0  0  0  0  0  0  0  0
    0.7958    0.2927    1.7919 H   0  0  0  0  0  0  0  0  0  0  0  0
   -0.7343    1.1772    1.9768 H   0  0  0  0  0  0  0  0  0  0  0  0
  1  2  1  0
  2  3  1  0
  2  7  1  0
  2  8  1  0
  3  4  1  0
  4  5  1  0
  4  9  1  0
  4 10  1  0
  5  6  1  0
  5 11  1  0
  5 12  1  0
  6  7  1  0
  6 13  1  0
  6 14  1  0
M  END
>  <reaction>  (2) 
rmg_rxn_13855

>  <type>  (2) 
r2h

>  <mol_properties>  (2) 
{"0": {"label": "a_hydrogen", "atom_type": "H0"}, "1": {"label": "acceptor", "atom_type": "Cs"}}

>  <electro_map>  (2) 
{"0": {"R": null, "A": null, "D": null}, "1": {"R": 1.0872370676099108, "A": null, "D": null}, "2": {"R": 1.3698383898677495, "A": 107.65351807250197, "D": null}, "6": {"R": 2.3295026965562715, "A": 53.90302079908904, "D": 325.1372069286338}, "3": {"R": 2.7904551899710426, "A": 30.639789687825726, "D": 227.993942716045}, "5": {"R": 2.4678951666652904, "A": 30.593958428225196, "D": 179.5881566251115}, "4": {"R": 1.5191646810418546, "A": 35.687370481357426, "D": 131.26319530358725}, "7": {"R": 3.7616292560583613, "A": 59.800350466011, "D": 323.9373592140616}, "8": {"R": 4.026819914707918, "A": 32.21607021641205, "D": 159.43441734858428}, "9": {"R": 1.7744650531637112, "A": 64.71749580551177, "D": 287.34002750196083}, "10": {"R": 3.06177558894836, "A": 53.35769310592436, "D": 68.99974042629522}, "11": {"R": 1.7701836534901514, "A": 53.420829531204795, "D": 114.54104597720075}, "12": {"R": 2.457421688721977, "A": 91.19629059235753, "D": 64.84299823290047}, "13": {"R": 1.7769919246346266, "A": 72.77458047435327, "D": 50.36227461727594}}

$$$$

     RDKit          3D

 23 22  0  0  0  0  0  0  0  0999 V2000
    2.5427   -2.2208    0.0043 C   0  0  0  0  0  0  0  0  0  0  0  0
    2.2235   -0.9447    0.0435 C   0  0  0  0  0  0  0  0  0  0  0  0
    1.8234    0.2665    0.0332 C   0  0  0  0  0  3  0  0  0  0  0  0
    2.3545    1.5582    0.5428 C   0  0  0  0  0  0  0  0  0  0  0  0
    2.2657   -2.8926    0.8082 H   0  0  0  0  0  0  0  0  0  0  0  0
    3.1126   -2.6308   -0.8206 H   0  0  0  0  0  0  0  0  0  0  0  0
    0.6326    0.4684   -0.5779 H   0  0  0  0  0  0  0  0  0  0  0  0
    3.2917    1.4201    1.0841 H   0  0  0  0  0  0  0  0  0  0  0  0
    1.6322    2.0324    1.2114 H   0  0  0  0  0  0  0  0  0  0  0  0
    2.5307    2.2531   -0.2813 H   0  0  0  0  0  0  0  0  0  0  0  0
   -0.5873    0.7937   -1.0630 C   0  0  0  0  0  0  0  0  0  0  0  0
   -1.1895   -0.3630   -1.4823 O   0  0  0  0  0  0  0  0  0  0  0  0
   -1.4680   -1.2714   -0.4217 C   0  0  0  0  0  0  0  0  0  0  0  0
   -2.2520   -0.5722    0.6759 C   0  0  0  0  0  0  0  0  0  0  0  0
   -1.5053    0.6882    1.0779 C   0  0  0  0  0  0  0  0  0  0  0  0
   -1.2335    1.4865   -0.0667 O   0  0  0  0  0  0  0  0  0  0  0  0
   -0.4200    1.4493   -1.9140 H   0  0  0  0  0  0  0  0  0  0  0  0
   -2.0299   -2.0901   -0.8672 H   0  0  0  0  0  0  0  0  0  0  0  0
   -0.5232   -1.6661   -0.0313 H   0  0  0  0  0  0  0  0  0  0  0  0
   -3.2464   -0.3088    0.3097 H   0  0  0  0  0  0  0  0  0  0  0  0
   -2.3675   -1.2335    1.5369 H   0  0  0  0  0  0  0  0  0  0  0  0
   -0.5578    0.4288    1.5675 H   0  0  0  0  0  0  0  0  0  0  0  0
   -2.0879    1.3132    1.7524 H   0  0  0  0  0  0  0  0  0  0  0  0
  1  2  2  0
  1  5  1  0
  1  6  1  0
  2  3  2  0
  3  4  1  0
  4  8  1  0
  4  9  1  0
  4 10  1  0
  7 11  1  0
 11 12  1  0
 11 16  1  0
 11 17  1  0
 12 13  1  0
 13 14  1  0
 13 18  1  0
 13 19  1  0
 14 15  1  0
 14 20  1  0
 14 21  1  0
 15 16  1  0
 15 22  1  0
 15 23  1  0
M  RAD  1   3   2
M  END
>  <reaction>  (3) 
rmg_rxn_13855

>  <type>  (3) 
ts

>  <mol_properties>  (3) 
{"1": {"label": "*4", "atom_type": "Cdd"}, "2": {"label": "*3", "atom_type": "Cd"}, "6": {"label": "*2", "atom_type": "H0"}, "10": {"label": "*1", "atom_type": "Cs"}, "11": {"label": "*0", "atom_type": "O2s"}}

$$$$
