
     RDKit          3D

  7  6  0  0  0  0  0  0  0  0999 V2000
   -0.0244    0.3377    0.3650 N   0  0  0  0  0  0  0  0  0  0  0  0
    0.3180   -0.8207    0.6758 N   0  0  0  0  0  0  0  0  0  0  0  0
   -0.2524    0.5063   -1.0067 C   0  0  0  0  0  0  0  0  0  0  0  0
   -1.2891    0.2114   -1.1554 H   0  0  0  0  0  0  0  0  0  0  0  0
   -0.2734    1.5470   -1.3136 H   0  0  0  0  0  0  0  0  0  0  0  0
    0.2756   -0.1833   -1.6667 H   0  0  0  0  0  0  0  0  0  0  0  0
    0.4449   -0.8253    1.6938 H   0  0  0  0  0  0  0  0  0  0  0  0
  1  3  1  0
  1  2  2  3
  2  7  1  0
  3  4  1  0
  3  5  1  0
  3  6  1  0
M  END
>  <reaction>  (1) 
rmg_rxn_13971

>  <type>  (1) 
r1h

>  <mol_properties>  (1) 
{"2": {"label": "donator", "atom_type": "Cs"}, "3": {"label": "d_hydrogen", "atom_type": "H0"}}

>  <electro_map>  (1) 
{"3": {"R": null, "A": null, "D": null}, "2": {"R": 1.0880311501931315, "A": null, "D": null}, "0": {"R": 1.400665469046699, "A": 104.85116612646463, "D": null}, "1": {"R": 1.2473307720676579, "A": 107.89455838434968, "D": 253.8910659902121}, "6": {"R": 1.0258184212706818, "A": 106.58215126790988, "D": 180.62068396808075}, "4": {"R": 3.8971814901540967, "A": 37.697902104404804, "D": 353.62356510505754}, "5": {"R": 1.8493229967587983, "A": 61.51531993498025, "D": 348.11692532659976}}

$$$$

     RDKit          3D

 10  9  0  0  0  0  0  0  0  0999 V2000
    0.8137   -1.7162   -0.0465 C   0  0  0  0  0  0  0  0  0  0  0  0
    0.6371   -0.2460    0.0386 C   0  0  0  0  0  0  0  0  0  0  0  0
   -1.2338    1.5390   -0.0022 C   0  0  0  0  0  0  0  0  0  0  0  0
   -0.3149    0.5981    0.0103 C   0  0  0  0  0  0  0  0  0  0  0  0
   -0.1531   -2.2200   -0.0854 H   0  0  0  0  0  0  0  0  0  0  0  0
    1.3732   -2.0822    0.8158 H   0  0  0  0  0  0  0  0  0  0  0  0
    1.3819   -1.9828   -0.9398 H   0  0  0  0  0  0  0  0  0  0  0  0
    1.6066    0.2285    0.1902 H   0  0  0  0  0  0  0  0  0  0  0  0
   -1.5485    2.0017   -0.9299 H   0  0  0  0  0  0  0  0  0  0  0  0
   -1.7130    1.8632    0.9136 H   0  0  0  0  0  0  0  0  0  0  0  0
  1  2  1  0
  1  5  1  0
  1  6  1  0
  1  7  1  0
  2  4  2  0
  2  8  1  0
  3  4  2  0
  3  9  1  0
  3 10  1  0
M  END
>  <reaction>  (2) 
rmg_rxn_13971

>  <type>  (2) 
r2h

>  <mol_properties>  (2) 
{"1": {"label": "acceptor", "atom_type": "Cd"}, "7": {"label": "a_hydrogen", "atom_type": "H0"}}

>  <electro_map>  (2) 
{"7": {"R": null, "A": null, "D": null}, "1": {"R": 1.0899999909882152, "A": null, "D": null}, "3": {"R": 1.2726447791606523, "A": 112.32023893347656, "D": null}, "2": {"R": 1.3152124895360182, "A": 144.94890511257037, "D": 179.7600890723443}, "0": {"R": 3.8458250073927953, "A": 12.211211472946975, "D": 184.43549998075022}, "4": {"R": 1.0908522229833404, "A": 85.38459007785922, "D": 176.47080974225898}, "5": {"R": 1.7777965597644056, "A": 35.44359095120657, "D": 236.37881111640215}, "6": {"R": 1.7584565063772708, "A": 60.166969201118036, "D": 322.7103167675925}, "8": {"R": 4.946025393237661, "A": 92.32722910435152, "D": 60.640179582525704}, "9": {"R": 1.8560219030526568, "A": 89.67953511148359, "D": 355.5085205132225}}

$$$$

     RDKit          3D

 16 14  0  0  0  0  0  0  0  0999 V2000
    1.9700    0.5408    1.3265 N   0  0  0  0  0  0  0  0  0  0  0  0
    2.3125   -0.6176    1.6374 N   0  0  0  0  0  0  0  0  0  0  0  0
   -0.5387   -1.7033   -0.4981 C   0  0  0  0  0  0  0  0  0  0  0  0
   -0.7152   -0.2331   -0.4130 C   0  0  0  0  0  3  0  0  0  0  0  0
   -2.5861    1.5519   -0.4538 C   0  0  0  0  0  0  0  0  0  0  0  0
    1.7420    0.7094   -0.0452 C   0  0  0  0  0  0  0  0  0  0  0  0
   -1.6672    0.6110   -0.4413 C   0  0  0  0  0  0  0  0  0  0  0  0
   -1.5054   -2.2071   -0.5369 H   0  0  0  0  0  0  0  0  0  0  0  0
    0.0208   -2.0693    0.3643 H   0  0  0  0  0  0  0  0  0  0  0  0
    0.0295   -1.9699   -1.3913 H   0  0  0  0  0  0  0  0  0  0  0  0
    0.4734    0.3486   -0.2271 H   0  0  0  0  0  0  0  0  0  0  0  0
   -2.9008    2.0146   -1.3814 H   0  0  0  0  0  0  0  0  0  0  0  0
   -3.0654    1.8761    0.4621 H   0  0  0  0  0  0  0  0  0  0  0  0
    1.7210    1.7501   -0.3521 H   0  0  0  0  0  0  0  0  0  0  0  0
    2.2701    0.0198   -0.7051 H   0  0  0  0  0  0  0  0  0  0  0  0
    2.4393   -0.6222    2.6553 H   0  0  0  0  0  0  0  0  0  0  0  0
  1  6  1  0
  1  2  2  3
  2 16  1  0
  3  4  1  0
  3  8  1  0
  3  9  1  0
  3 10  1  0
  4  7  2  0
  5  7  2  0
  5 12  1  0
  5 13  1  0
  6 11  1  0
  6 14  1  0
  6 15  1  0
M  RAD  1   4   2
M  END
>  <reaction>  (3) 
rmg_rxn_13971

>  <type>  (3) 
ts

>  <mol_properties>  (3) 
{"0": {"label": "*0", "atom_type": "N3d"}, "3": {"label": "*3", "atom_type": "Cd"}, "5": {"label": "*1", "atom_type": "Cs"}, "6": {"label": "*4", "atom_type": "Cdd"}, "10": {"label": "*2", "atom_type": "H0"}}

$$$$
