
     RDKit          3D

  6  5  0  0  0  0  0  0  0  0999 V2000
   -0.5234    0.5424   -0.7891 O   0  0  0  0  0  0  0  0  0  0  0  0
   -0.2737    0.2222    0.3543 N   0  0  0  0  0  0  0  0  0  0  0  0
    0.7303   -0.7506    0.5083 C   0  0  0  0  0  0  0  0  0  0  0  0
    1.6722   -0.2348    0.3327 H   0  0  0  0  0  0  0  0  0  0  0  0
    0.7999   -1.1187    1.5272 H   0  0  0  0  0  0  0  0  0  0  0  0
    0.7590   -1.5061   -0.2779 H   0  0  0  0  0  0  0  0  0  0  0  0
  1  2  2  0
  2  3  1  0
  3  4  1  0
  3  5  1  0
  3  6  1  0
M  END
>  <reaction>  (1) 
rmg_rxn_13911

>  <type>  (1) 
r1h

>  <mol_properties>  (1) 
{"2": {"label": "donator", "atom_type": "Cs"}, "3": {"label": "d_hydrogen", "atom_type": "H0"}}

>  <electro_map>  (1) 
{"3": {"R": null, "A": null, "D": null}, "2": {"R": 1.0881842554250096, "A": null, "D": null}, "1": {"R": 1.4063897381336543, "A": 105.8086265416053, "D": null}, "0": {"R": 1.2133383792119026, "A": 104.50912622115956, "D": 244.37950291746787}, "4": {"R": 3.142552936991196, "A": 22.966483891647545, "D": 7.750864656842641}, "5": {"R": 1.846634305964229, "A": 51.763702828523755, "D": 168.63002742030375}}

$$$$

     RDKit          3D

 10  9  0  0  0  0  0  0  0  0999 V2000
   -0.9656    1.6432    0.0824 C   0  0  0  0  0  0  0  0  0  0  0  0
   -0.6291    0.2015    0.1173 C   0  0  0  0  0  0  0  0  0  0  0  0
    1.3453   -1.4401   -0.1775 C   0  0  0  0  0  0  0  0  0  0  0  0
    0.3684   -0.5683   -0.0351 C   0  0  0  0  0  0  0  0  0  0  0  0
   -0.0594    2.2425   -0.0171 H   0  0  0  0  0  0  0  0  0  0  0  0
   -1.4833    1.9401    0.9961 H   0  0  0  0  0  0  0  0  0  0  0  0
   -1.6282    1.8610   -0.7563 H   0  0  0  0  0  0  0  0  0  0  0  0
   -1.5412   -0.3479    0.3506 H   0  0  0  0  0  0  0  0  0  0  0  0
    1.5832   -1.8575   -1.1484 H   0  0  0  0  0  0  0  0  0  0  0  0
    1.9495   -1.7460    0.6679 H   0  0  0  0  0  0  0  0  0  0  0  0
  1  2  1  0
  1  5  1  0
  1  6  1  0
  1  7  1  0
  2  4  2  0
  2  8  1  0
  3  4  2  0
  3  9  1  0
  3 10  1  0
M  END
>  <reaction>  (2) 
rmg_rxn_13911

>  <type>  (2) 
r2h

>  <mol_properties>  (2) 
{"1": {"label": "acceptor", "atom_type": "Cd"}, "7": {"label": "a_hydrogen", "atom_type": "H0"}}

>  <electro_map>  (2) 
{"7": {"R": null, "A": null, "D": null}, "1": {"R": 1.089999936305053, "A": null, "D": null}, "3": {"R": 1.2692184297588713, "A": 112.18743960737758, "D": null}, "2": {"R": 1.3170144235520647, "A": 144.90206444277868, "D": 180.1487784745842}, "0": {"R": 3.861864900688453, "A": 11.600359873949605, "D": 178.6950933366488}, "4": {"R": 1.0910366188812954, "A": 86.29768840489807, "D": 172.84834683974532}, "5": {"R": 1.7736083633187814, "A": 35.646865629937096, "D": 235.39804063099842}, "6": {"R": 1.7601390446661387, "A": 60.33022416454994, "D": 323.018540132721}, "8": {"R": 4.928933159958341, "A": 93.41015963639796, "D": 61.75541642453957}, "9": {"R": 1.8562874684261033, "A": 90.30985208129952, "D": 354.3966178432407}}

$$$$

     RDKit          3D

 15 13  0  0  0  0  0  0  0  0999 V2000
   -2.9582    0.3604   -0.8117 O   0  0  0  0  0  0  0  0  0  0  0  0
   -2.7085    0.0402    0.3317 N   0  0  0  0  0  0  0  0  0  0  0  0
    0.2323    1.8167   -0.0526 C   0  0  0  0  0  0  0  0  0  0  0  0
    0.5688    0.3750   -0.0177 C   0  0  0  0  0  3  0  0  0  0  0  0
    2.5432   -1.2666   -0.3126 C   0  0  0  0  0  0  0  0  0  0  0  0
   -1.7046   -0.9326    0.4857 C   0  0  0  0  0  0  0  0  0  0  0  0
    1.5663   -0.3948   -0.1701 C   0  0  0  0  0  0  0  0  0  0  0  0
    1.1385    2.4160   -0.1521 H   0  0  0  0  0  0  0  0  0  0  0  0
   -0.2854    2.1136    0.8610 H   0  0  0  0  0  0  0  0  0  0  0  0
   -0.4303    2.0345   -0.8913 H   0  0  0  0  0  0  0  0  0  0  0  0
   -0.5797   -0.3168    0.2760 H   0  0  0  0  0  0  0  0  0  0  0  0
   -1.6349   -1.3007    1.5046 H   0  0  0  0  0  0  0  0  0  0  0  0
   -1.6759   -1.6882   -0.3005 H   0  0  0  0  0  0  0  0  0  0  0  0
    2.7811   -1.6840   -1.2835 H   0  0  0  0  0  0  0  0  0  0  0  0
    3.1474   -1.5725    0.5329 H   0  0  0  0  0  0  0  0  0  0  0  0
  1  2  2  0
  2  6  1  0
  3  4  1  0
  3  8  1  0
  3  9  1  0
  3 10  1  0
  4  7  2  0
  5  7  2  0
  5 14  1  0
  5 15  1  0
  6 11  1  0
  6 12  1  0
  6 13  1  0
M  RAD  1   4   2
M  END
>  <reaction>  (3) 
rmg_rxn_13911

>  <type>  (3) 
ts

>  <mol_properties>  (3) 
{"1": {"label": "*0", "atom_type": "N3d"}, "3": {"label": "*3", "atom_type": "Cd"}, "5": {"label": "*1", "atom_type": "Cs"}, "6": {"label": "*4", "atom_type": "Cdd"}, "10": {"label": "*2", "atom_type": "H0"}}

$$$$
