
     RDKit          3D

  6  5  0  0  0  0  0  0  0  0999 V2000
    0.6238    0.8368    0.5804 C   0  0  0  0  0  0  0  0  0  0  0  0
   -0.0627   -0.3079    0.2469 N   0  0  0  0  0  0  0  0  0  0  0  0
   -0.5368   -0.5749   -0.8013 O   0  0  0  0  0  0  0  0  0  0  0  0
   -0.1618    1.2715    1.1920 H   0  0  0  0  0  0  0  0  0  0  0  0
    0.9123    1.4410   -0.2760 H   0  0  0  0  0  0  0  0  0  0  0  0
    1.3840    0.6316    1.3275 H   0  0  0  0  0  0  0  0  0  0  0  0
  1  2  1  0
  1  4  1  0
  1  5  1  0
  1  6  1  0
  2  3  2  0
M  END
>  <reaction>  (1) 
rmg_rxn_1538

>  <type>  (1) 
r1h

>  <mol_properties>  (1) 
{"0": {"label": "donator", "atom_type": "Cs"}, "3": {"label": "d_hydrogen", "atom_type": "H0"}}

>  <electro_map>  (1) 
{"3": {"R": null, "A": null, "D": null}, "0": {"R": 1.0862785188115978, "A": null, "D": null}, "1": {"R": 1.375764374247675, "A": 96.23196500914713, "D": null}, "2": {"R": 1.18105807486052, "A": 128.8446002802019, "D": 257.9560511368781}, "4": {"R": 2.537659618449907, "A": 53.66278207350281, "D": 6.263282159392371}, "5": {"R": 1.8571028731307215, "A": 88.71515663854584, "D": 13.502752096099588}}

$$$$

     RDKit          3D

  5  4  0  0  0  0  0  0  0  0999 V2000
    0.4666    0.9998    0.0552 N   0  0  0  0  0  0  0  0  0  0  0  0
    0.2317   -0.2003   -0.2340 N   0  0  0  0  0  0  0  0  0  0  0  0
   -0.6995   -0.8654    0.1553 O   0  0  0  0  0  0  0  0  0  0  0  0
   -0.2005    1.4395    0.6872 H   0  0  0  0  0  0  0  0  0  0  0  0
    1.3178    1.1401   -0.4867 H   0  0  0  0  0  0  0  0  0  0  0  0
  1  2  1  0
  1  4  1  0
  1  5  1  0
  2  3  2  0
M  END
>  <reaction>  (2) 
rmg_rxn_1538

>  <type>  (2) 
r2h

>  <mol_properties>  (2) 
{"0": {"label": "acceptor", "atom_type": "N3s"}, "4": {"label": "a_hydrogen", "atom_type": "H0"}}

>  <electro_map>  (2) 
{"4": {"R": null, "A": null, "D": null}, "0": {"R": 1.0187261332893185, "A": null, "D": null}, "1": {"R": 1.256667949176677, "A": 99.51331148427371, "D": null}, "2": {"R": 1.208721520562758, "A": 161.72225770913806, "D": 1.2079817220133298}, "3": {"R": 2.417544621999588, "A": 52.21209823276618, "D": 359.77940972459226}}

$$$$

     RDKit          3D

 10  8  0  0  0  0  0  0  0  0999 V2000
   -0.5290    1.0837    1.0079 N   0  0  0  0  0  0  0  0  0  0  0  0
   -0.7639   -0.1164    0.7187 N   0  0  0  0  0  0  0  0  0  0  0  0
   -1.6951   -0.7815    1.1080 O   0  0  0  0  0  1  0  0  0  0  0  0
   -1.1962    1.5234    1.6399 H   0  0  0  0  0  0  0  0  0  0  0  0
    1.5595    0.7419   -0.4573 C   0  0  0  0  0  0  0  0  0  0  0  0
    0.8730   -0.4028   -0.7907 N   0  0  0  0  0  0  0  0  0  0  0  0
    0.3989   -0.6698   -1.8390 O   0  0  0  0  0  0  0  0  0  0  0  0
    0.6042    1.2705    0.2865 H   0  0  0  0  0  0  0  0  0  0  0  0
    1.8480    1.3461   -1.3136 H   0  0  0  0  0  0  0  0  0  0  0  0
    2.3198    0.5367    0.2898 H   0  0  0  0  0  0  0  0  0  0  0  0
  1  2  2  3
  1  4  1  0
  2  3  1  0
  5  6  1  0
  5  8  1  0
  5  9  1  0
  5 10  1  0
  6  7  2  0
M  RAD  1   3   2
M  END
>  <reaction>  (3) 
rmg_rxn_1538

>  <type>  (3) 
ts

>  <mol_properties>  (3) 
{"0": {"label": "*3", "atom_type": "N3d"}, "1": {"label": "*4", "atom_type": "N3d"}, "4": {"label": "*1", "atom_type": "Cs"}, "5": {"label": "*0", "atom_type": "N3d"}, "7": {"label": "*2", "atom_type": "H0"}}

$$$$
