
     RDKit          3D

 10  9  0  0  0  0  0  0  0  0999 V2000
    0.2149    1.7610    0.6479 C   0  0  0  0  0  0  0  0  0  0  0  0
    0.0077    0.5211    0.4453 C   0  0  0  0  0  0  0  0  0  0  0  0
   -0.3161   -0.7260    0.1654 C   0  0  0  0  0  0  0  0  0  0  0  0
    0.0951   -1.4451   -1.0833 C   0  0  0  0  0  0  0  0  0  0  0  0
   -0.5233    2.4158    0.2104 H   0  0  0  0  0  0  0  0  0  0  0  0
    1.0201    2.2797    1.1457 H   0  0  0  0  0  0  0  0  0  0  0  0
   -0.9121   -1.2735    0.8897 H   0  0  0  0  0  0  0  0  0  0  0  0
    0.6773   -2.3397   -0.8475 H   0  0  0  0  0  0  0  0  0  0  0  0
    0.6940   -0.8026   -1.7272 H   0  0  0  0  0  0  0  0  0  0  0  0
   -0.7845   -1.7698   -1.6456 H   0  0  0  0  0  0  0  0  0  0  0  0
  1  2  2  0
  1  5  1  0
  1  6  1  0
  2  3  2  0
  3  4  1  0
  3  7  1  0
  4  8  1  0
  4  9  1  0
  4 10  1  0
M  END
>  <reaction>  (1) 
rmg_rxn_13994

>  <type>  (1) 
r1h

>  <mol_properties>  (1) 
{"0": {"label": "donator", "atom_type": "Cd"}, "4": {"label": "d_hydrogen", "atom_type": "H0"}}

>  <electro_map>  (1) 
{"4": {"R": null, "A": null, "D": null}, "0": {"R": 1.0793982464750478, "A": null, "D": null}, "1": {"R": 1.2733021295595437, "A": 114.51879342710895, "D": null}, "2": {"R": 1.318472262600317, "A": 144.42437059701962, "D": 180.1266323960574}, "3": {"R": 1.498510336274172, "A": 124.2938686598814, "D": 86.43833399916228}, "5": {"R": 4.438249981324679, "A": 40.17511532274968, "D": 12.12065400677755}, "6": {"R": 4.052595065376754, "A": 29.900639306029962, "D": 6.015097712117767}, "7": {"R": 2.584823230034054, "A": 96.36926735271177, "D": 21.976728062045293}, "8": {"R": 1.771118799275605, "A": 88.94556137987563, "D": 317.45029367128177}, "9": {"R": 1.7686685981485917, "A": 59.64120071911685, "D": 292.3965808308638}}

$$$$

     RDKit          3D

 15 14  0  0  0  0  0  0  0  0999 V2000
    1.6414    0.1317    0.5831 H   0  0  0  0  0  0  0  0  0  0  0  0
   -0.9166   -1.2836    1.8055 C   0  0  0  0  0  0  0  0  0  0  0  0
   -1.4292   -0.4438    0.6476 C   0  0  0  0  0  0  0  0  0  0  0  0
   -0.2637   -0.2350   -0.7207 S   0  0  0  0  0  0  0  0  0  0  0  0
    0.9736    0.7811    0.0154 C   0  0  0  0  0  0  0  0  0  0  0  0
    1.8811    1.4503   -0.9870 C   0  0  0  0  0  0  0  0  0  0  0  0
   -0.0409   -0.8296    2.2695 H   0  0  0  0  0  0  0  0  0  0  0  0
   -1.6934   -1.3844    2.5671 H   0  0  0  0  0  0  0  0  0  0  0  0
   -0.6296   -2.2782    1.4643 H   0  0  0  0  0  0  0  0  0  0  0  0
   -1.7352    0.5486    0.9849 H   0  0  0  0  0  0  0  0  0  0  0  0
   -2.3027   -0.9107    0.1896 H   0  0  0  0  0  0  0  0  0  0  0  0
    0.5585    1.4558    0.7653 H   0  0  0  0  0  0  0  0  0  0  0  0
    1.3457    2.1907   -1.5862 H   0  0  0  0  0  0  0  0  0  0  0  0
    2.6997    1.9550   -0.4711 H   0  0  0  0  0  0  0  0  0  0  0  0
    2.3181    0.7150   -1.6655 H   0  0  0  0  0  0  0  0  0  0  0  0
  1  5  1  0
  2  3  1  0
  2  7  1  0
  2  8  1  0
  2  9  1  0
  3  4  1  0
  3 10  1  0
  3 11  1  0
  4  5  1  0
  5  6  1  0
  5 12  1  0
  6 13  1  0
  6 14  1  0
  6 15  1  0
M  END
>  <reaction>  (2) 
rmg_rxn_13994

>  <type>  (2) 
r2h

>  <mol_properties>  (2) 
{"0": {"label": "a_hydrogen", "atom_type": "H0"}, "4": {"label": "acceptor", "atom_type": "Cs"}}

>  <electro_map>  (2) 
{"0": {"R": null, "A": null, "D": null}, "4": {"R": 1.0908360492933795, "A": null, "D": null}, "3": {"R": 1.7621311288724193, "A": 107.69137053386478, "D": null}, "2": {"R": 1.8094875689393382, "A": 96.96892131055355, "D": 257.6643788741859}, "1": {"R": 1.5195216004523704, "A": 115.00631608029055, "D": 291.2958665893558}, "5": {"R": 4.806213632751105, "A": 55.889073159837636, "D": 31.04210533928287}, "6": {"R": 4.415524724967776, "A": 12.683023698609407, "D": 147.586303568666}, "7": {"R": 1.7683917623005752, "A": 133.85544979455037, "D": 335.6595702653488}, "8": {"R": 1.773891441292139, "A": 59.538264682557404, "D": 79.98376395776585}, "9": {"R": 3.072936511649153, "A": 54.38781127764056, "D": 293.001695520936}, "10": {"R": 1.7562230362637992, "A": 54.725523382736554, "D": 255.14401574663884}, "11": {"R": 3.757482692655804, "A": 32.98519428202126, "D": 297.1598184938466}, "12": {"R": 2.5864221401091747, "A": 105.74725458891108, "D": 234.40952999273566}, "13": {"R": 1.7698703466225314, "A": 67.79886394743109, "D": 218.46000101463235}, "14": {"R": 1.7634795665979437, "A": 60.08783612008137, "D": 101.62326486074254}}

$$$$

     RDKit          3D

 24 22  0  0  0  0  0  0  0  0999 V2000
    1.6887    0.3079    1.0271 C   0  0  0  0  0  0  0  0  0  0  0  0
    1.4815   -0.9320    0.8245 C   0  0  0  0  0  0  0  0  0  0  0  0
    1.1577   -2.1790    0.5446 C   0  0  0  0  0  3  0  0  0  0  0  0
    1.5689   -2.8981   -0.7042 C   0  0  0  0  0  0  0  0  0  0  0  0
    0.7598    1.1320    0.4765 H   0  0  0  0  0  0  0  0  0  0  0  0
    2.4939    0.8266    1.5249 H   0  0  0  0  0  0  0  0  0  0  0  0
    0.5617   -2.7265    1.2689 H   0  0  0  0  0  0  0  0  0  0  0  0
    2.1511   -3.7927   -0.4683 H   0  0  0  0  0  0  0  0  0  0  0  0
    2.1678   -2.2556   -1.3480 H   0  0  0  0  0  0  0  0  0  0  0  0
    0.6893   -3.2228   -1.2665 H   0  0  0  0  0  0  0  0  0  0  0  0
   -1.9424   -0.1430    1.5764 C   0  0  0  0  0  0  0  0  0  0  0  0
   -2.4550    0.6968    0.4184 C   0  0  0  0  0  0  0  0  0  0  0  0
   -1.2895    0.9056   -0.9498 S   0  0  0  0  0  0  0  0  0  0  0  0
   -0.0522    1.9217   -0.2137 C   0  0  0  0  0  0  0  0  0  0  0  0
    0.8553    2.5909   -1.2162 C   0  0  0  0  0  0  0  0  0  0  0  0
   -1.0667    0.3110    2.0404 H   0  0  0  0  0  0  0  0  0  0  0  0
   -2.7192   -0.2438    2.3379 H   0  0  0  0  0  0  0  0  0  0  0  0
   -1.6554   -1.1376    1.2352 H   0  0  0  0  0  0  0  0  0  0  0  0
   -2.7610    1.6892    0.7558 H   0  0  0  0  0  0  0  0  0  0  0  0
   -3.3285    0.2299   -0.0396 H   0  0  0  0  0  0  0  0  0  0  0  0
   -0.4673    2.5964    0.5362 H   0  0  0  0  0  0  0  0  0  0  0  0
    0.3199    3.3313   -1.8154 H   0  0  0  0  0  0  0  0  0  0  0  0
    1.6739    3.0957   -0.7002 H   0  0  0  0  0  0  0  0  0  0  0  0
    1.2923    1.8556   -1.8946 H   0  0  0  0  0  0  0  0  0  0  0  0
  1  2  3  0
  1  6  1  0
  2  3  1  0
  3  4  1  0
  3  7  1  0
  4  8  1  0
  4  9  1  0
  4 10  1  0
  5 14  1  0
 11 12  1  0
 11 16  1  0
 11 17  1  0
 11 18  1  0
 12 13  1  0
 12 19  1  0
 12 20  1  0
 13 14  1  0
 14 15  1  0
 14 21  1  0
 15 22  1  0
 15 23  1  0
 15 24  1  0
M  RAD  1   3   2
M  END
>  <reaction>  (3) 
rmg_rxn_13994

>  <type>  (3) 
ts

>  <mol_properties>  (3) 
{"0": {"label": "*3", "atom_type": "Ct"}, "1": {"label": "*4", "atom_type": "Ct"}, "4": {"label": "*2", "atom_type": "H0"}, "12": {"label": "*0", "atom_type": "S2s"}, "13": {"label": "*1", "atom_type": "Cs"}}

$$$$
