
     RDKit          3D

 10  9  0  0  0  0  0  0  0  0999 V2000
    0.3455   -0.3155   -1.8870 C   0  0  0  0  0  0  0  0  0  0  0  0
    0.2629   -0.1899   -0.5881 C   0  0  0  0  0  0  0  0  0  0  0  0
    0.2328   -0.0963    0.6931 C   0  0  0  0  0  0  0  0  0  0  0  0
   -0.7511    0.5388    1.6162 C   0  0  0  0  0  0  0  0  0  0  0  0
    0.8466    0.4315   -2.4915 H   0  0  0  0  0  0  0  0  0  0  0  0
   -0.0948   -1.1643   -2.3971 H   0  0  0  0  0  0  0  0  0  0  0  0
    1.0721   -0.5608    1.2107 H   0  0  0  0  0  0  0  0  0  0  0  0
   -1.1625   -0.2014    2.3057 H   0  0  0  0  0  0  0  0  0  0  0  0
   -1.5737    0.9912    1.0619 H   0  0  0  0  0  0  0  0  0  0  0  0
   -0.2689    1.3134    2.2161 H   0  0  0  0  0  0  0  0  0  0  0  0
  1  2  2  0
  1  5  1  0
  1  6  1  0
  2  3  2  0
  3  4  1  0
  3  7  1  0
  4  8  1  0
  4  9  1  0
  4 10  1  0
M  END
>  <reaction>  (1) 
rmg_rxn_13867

>  <type>  (1) 
r1h

>  <mol_properties>  (1) 
{"2": {"label": "donator", "atom_type": "Cd"}, "6": {"label": "d_hydrogen", "atom_type": "H0"}}

>  <electro_map>  (1) 
{"6": {"R": null, "A": null, "D": null}, "2": {"R": 1.0900000456713745, "A": null, "D": null}, "1": {"R": 1.2849628801587716, "A": 115.11058849963483, "D": null}, "0": {"R": 1.3076438074913626, "A": 147.89900466115895, "D": 180.00000295755868}, "3": {"R": 3.768965003616554, "A": 15.531299930444053, "D": 180.00002809680734}, "4": {"R": 4.4088014831219295, "A": 12.31800164458551, "D": 99.5240169267699}, "5": {"R": 1.8551961276898554, "A": 77.85440603082964, "D": 9.744137703696797}, "7": {"R": 4.917658861985175, "A": 89.45179714540375, "D": 357.26329117305306}, "8": {"R": 1.7716353077713123, "A": 60.71047675439643, "D": 54.8812384971678}, "9": {"R": 1.7716353077713123, "A": 59.60681009246474, "D": 250.4921483027235}}

$$$$

     RDKit          3D

  4  3  0  0  0  0  0  0  0  0999 V2000
    0.0231   -0.0126    0.0180 C   0  0  0  0  0  3  0  0  0  0  0  0
   -0.0123    0.0721    1.0958 H   0  0  0  0  0  0  0  0  0  0  0  0
    0.7914   -0.5004   -0.5666 H   0  0  0  0  0  0  0  0  0  0  0  0
   -0.7832    0.4294   -0.5516 H   0  0  0  0  0  0  0  0  0  0  0  0
  1  2  1  0
  1  3  1  0
  1  4  1  0
M  RAD  1   1   2
M  END
>  <reaction>  (2) 
rmg_rxn_13867

>  <type>  (2) 
r2h

>  <mol_properties>  (2) 
{"0": {"label": "acceptor", "atom_type": "Cs"}, "3": {"label": "a_hydrogen", "atom_type": "H0"}}

>  <electro_map>  (2) 
{"3": {"R": null, "A": null, "D": null}, "0": {"R": 1.0816699637313567, "A": null, "D": null}, "1": {"R": 1.0816699637313567, "A": 117.92085443554082, "D": null}, "2": {"R": 1.933114472146879, "A": 57.70839152187526, "D": 359.99994322565743}}

$$$$

     RDKit          3D

 13 11  0  0  0  0  0  0  0  0999 V2000
    1.7491   -0.9605    1.6425 C   0  0  0  0  0  2  0  0  0  0  0  0
    1.7137   -0.8758    2.7203 H   0  0  0  0  0  0  0  0  0  0  0  0
    2.5173   -1.4483    1.0580 H   0  0  0  0  0  0  0  0  0  0  0  0
   -0.1650   -0.0636   -2.2841 C   0  0  0  0  0  0  0  0  0  0  0  0
   -0.2476    0.0620   -0.9852 C   0  0  0  0  0  0  0  0  0  0  0  0
   -0.2777    0.1555    0.2960 C   0  0  0  0  0  0  0  0  0  0  0  0
   -1.2616    0.7906    1.2191 C   0  0  0  0  0  0  0  0  0  0  0  0
    0.3361    0.6834   -2.8886 H   0  0  0  0  0  0  0  0  0  0  0  0
   -0.6053   -0.9124   -2.7942 H   0  0  0  0  0  0  0  0  0  0  0  0
    0.6715   -0.3698    0.8814 H   0  0  0  0  0  0  0  0  0  0  0  0
   -1.6730    0.0504    1.9086 H   0  0  0  0  0  0  0  0  0  0  0  0
   -2.0842    1.2431    0.6648 H   0  0  0  0  0  0  0  0  0  0  0  0
   -0.7794    1.5653    1.8190 H   0  0  0  0  0  0  0  0  0  0  0  0
  1  2  1  0
  1  3  1  0
  4  5  2  0
  4  8  1  0
  4  9  1  0
  5  6  2  0
  6  7  1  0
  6 10  1  0
  7 11  1  0
  7 12  1  0
  7 13  1  0
M  RAD  1   1   3
M  END
>  <reaction>  (3) 
rmg_rxn_13867

>  <type>  (3) 
ts

>  <mol_properties>  (3) 
{"0": {"label": "*3", "atom_type": "Cs"}, "1": {"label": "*4", "atom_type": "H0"}, "4": {"label": "*0", "atom_type": "Cdd"}, "5": {"label": "*1", "atom_type": "Cd"}, "9": {"label": "*2", "atom_type": "H0"}}

$$$$
