
     RDKit          3D

 10  9  0  0  0  0  0  0  0  0999 V2000
    1.0653    0.1275   -1.6242 C   0  0  0  0  0  0  0  0  0  0  0  0
    0.4941    0.0080   -0.4517 C   0  0  0  0  0  0  0  0  0  0  0  0
   -0.0023   -0.1226    0.7250 C   0  0  0  0  0  0  0  0  0  0  0  0
   -1.4013   -0.0139    1.2290 C   0  0  0  0  0  0  0  0  0  0  0  0
    1.4283    1.0863   -1.9756 H   0  0  0  0  0  0  0  0  0  0  0  0
    1.1768   -0.7259   -2.2829 H   0  0  0  0  0  0  0  0  0  0  0  0
    0.7261   -0.3554    1.5018 H   0  0  0  0  0  0  0  0  0  0  0  0
   -1.7141   -0.9506    1.6954 H   0  0  0  0  0  0  0  0  0  0  0  0
   -2.0958    0.2194    0.4213 H   0  0  0  0  0  0  0  0  0  0  0  0
   -1.4754    0.7690    1.9869 H   0  0  0  0  0  0  0  0  0  0  0  0
  1  2  2  0
  1  5  1  0
  1  6  1  0
  2  3  2  0
  3  4  1  0
  3  7  1  0
  4  8  1  0
  4  9  1  0
  4 10  1  0
M  END
>  <reaction>  (1) 
rmg_rxn_13896

>  <type>  (1) 
r1h

>  <mol_properties>  (1) 
{"2": {"label": "donator", "atom_type": "Cd"}, "6": {"label": "d_hydrogen", "atom_type": "H0"}}

>  <electro_map>  (1) 
{"6": {"R": null, "A": null, "D": null}, "2": {"R": 1.089999936305053, "A": null, "D": null}, "1": {"R": 1.2838169992675503, "A": 114.6225129256927, "D": null}, "0": {"R": 1.3097322436412602, "A": 147.16009385305884, "D": 179.9999699234072}, "3": {"R": 3.7743270173096755, "A": 15.153232385867254, "D": 179.99985319313123}, "4": {"R": 4.414413789257098, "A": 12.299321297224362, "D": 99.44184734048943}, "5": {"R": 1.8552278061076304, "A": 77.86985578398709, "D": 9.659551435355178}, "7": {"R": 4.92283325555141, "A": 89.44807163477275, "D": 357.2221953093728}, "8": {"R": 1.7714179551228302, "A": 60.99819104039851, "D": 55.005853774635504}, "9": {"R": 1.7714179551228302, "A": 59.58840147845453, "D": 250.7253433155383}}

$$$$

     RDKit          3D

  9  8  0  0  0  0  0  0  0  0999 V2000
   -1.2419    0.1484    0.1412 C   0  0  0  0  0  0  0  0  0  0  0  0
   -0.0632    0.0815   -0.4289 C   0  0  0  0  0  0  0  0  0  0  0  0
    1.2314   -0.2169    0.2714 C   0  0  0  0  0  0  0  0  0  0  0  0
   -1.5364    0.0140    1.1753 H   0  0  0  0  0  0  0  0  0  0  0  0
   -0.0012    0.2550   -1.5032 H   0  0  0  0  0  0  0  0  0  0  0  0
    1.6970   -1.1101   -0.1521 H   0  0  0  0  0  0  0  0  0  0  0  0
    1.0821   -0.3772    1.3391 H   0  0  0  0  0  0  0  0  0  0  0  0
    1.9355    0.6081    0.1393 H   0  0  0  0  0  0  0  0  0  0  0  0
   -2.0315    0.3777   -0.5647 H   0  0  0  0  0  0  0  0  0  0  0  0
  1  2  2  3
  1  4  1  0
  1  9  1  0
  2  3  1  0
  2  5  1  0
  3  6  1  0
  3  7  1  0
  3  8  1  0
M  END
>  <reaction>  (2) 
rmg_rxn_13896

>  <type>  (2) 
r2h

>  <mol_properties>  (2) 
{"0": {"label": "acceptor", "atom_type": "Cd"}, "8": {"label": "a_hydrogen", "atom_type": "H0"}}

>  <electro_map>  (2) 
{"8": {"R": null, "A": null, "D": null}, "0": {"R": 1.0835816881186437, "A": null, "D": null}, "1": {"R": 1.3110375658293731, "A": 112.49922794265278, "D": null}, "2": {"R": 1.501825731527399, "A": 155.739943761663, "D": 0.0006504203192922548}, "3": {"R": 2.9207786094193615, "A": 46.50558570246644, "D": 1.668685248064749e-05}, "4": {"R": 3.0965811365783065, "A": 43.004243061564864, "D": 1.1390761175093017e-05}, "5": {"R": 2.563790996340907, "A": 80.27604389999159, "D": 20.367041421299543}, "6": {"R": 1.7716413300114935, "A": 89.62130352107212, "D": 331.84725970548214}, "7": {"R": 1.7716413300114935, "A": 59.52579903345467, "D": 293.04088977483894}}

$$$$

     RDKit          3D

 18 16  0  0  0  0  0  0  0  0999 V2000
    0.4932   -0.2502    1.6119 C   0  0  0  0  0  3  0  0  0  0  0  0
    1.6719   -0.3172    1.0419 C   0  0  0  0  0  0  0  0  0  0  0  0
    2.9665   -0.6156    1.7422 C   0  0  0  0  0  0  0  0  0  0  0  0
    0.1987   -0.3847    2.6460 H   0  0  0  0  0  0  0  0  0  0  0  0
    1.7339   -0.1436   -0.0324 H   0  0  0  0  0  0  0  0  0  0  0  0
    3.4321   -1.5087    1.3187 H   0  0  0  0  0  0  0  0  0  0  0  0
    2.8172   -0.7759    2.8099 H   0  0  0  0  0  0  0  0  0  0  0  0
    3.6706    0.2094    1.6100 H   0  0  0  0  0  0  0  0  0  0  0  0
   -0.3235    0.5713   -2.5646 C   0  0  0  0  0  0  0  0  0  0  0  0
   -0.8947    0.4517   -1.3921 C   0  0  0  0  0  0  0  0  0  0  0  0
   -1.3911    0.3211   -0.2153 C   0  0  0  0  0  0  0  0  0  0  0  0
   -2.7902    0.4298    0.2886 C   0  0  0  0  0  0  0  0  0  0  0  0
    0.0395    1.5301   -2.9160 H   0  0  0  0  0  0  0  0  0  0  0  0
   -0.2120   -0.2822   -3.2232 H   0  0  0  0  0  0  0  0  0  0  0  0
   -0.5639    0.0568    0.6669 H   0  0  0  0  0  0  0  0  0  0  0  0
   -3.1029   -0.5069    0.7550 H   0  0  0  0  0  0  0  0  0  0  0  0
   -3.4846    0.6631   -0.5190 H   0  0  0  0  0  0  0  0  0  0  0  0
   -2.8642    1.2127    1.0466 H   0  0  0  0  0  0  0  0  0  0  0  0
  1  2  2  3
  1  4  1  0
  2  3  1  0
  2  5  1  0
  3  6  1  0
  3  7  1  0
  3  8  1  0
  9 10  2  0
  9 13  1  0
  9 14  1  0
 10 11  2  0
 11 12  1  0
 11 15  1  0
 12 16  1  0
 12 17  1  0
 12 18  1  0
M  RAD  1   1   2
M  END
>  <reaction>  (3) 
rmg_rxn_13896

>  <type>  (3) 
ts

>  <mol_properties>  (3) 
{"0": {"label": "*3", "atom_type": "Cd"}, "1": {"label": "*4", "atom_type": "Cd"}, "9": {"label": "*0", "atom_type": "Cdd"}, "10": {"label": "*1", "atom_type": "Cd"}, "14": {"label": "*2", "atom_type": "H0"}}

$$$$
