
     RDKit          3D

 10  9  0  0  0  0  0  0  0  0999 V2000
    0.5512    1.0371    0.5765 C   0  0  0  0  0  3  0  0  0  0  0  0
    0.2745    0.0438   -0.4839 C   0  0  0  0  0  0  0  0  0  0  0  0
   -0.7628   -1.0066   -0.0956 C   0  0  0  0  0  0  0  0  0  0  0  0
    0.0174    0.9878    1.5188 H   0  0  0  0  0  0  0  0  0  0  0  0
    1.2621    1.8499    0.4794 H   0  0  0  0  0  0  0  0  0  0  0  0
   -0.0580    0.5634   -1.3942 H   0  0  0  0  0  0  0  0  0  0  0  0
    1.2108   -0.4576   -0.7678 H   0  0  0  0  0  0  0  0  0  0  0  0
   -1.7177   -0.5389    0.1489 H   0  0  0  0  0  0  0  0  0  0  0  0
   -0.9256   -1.7132   -0.9105 H   0  0  0  0  0  0  0  0  0  0  0  0
   -0.4382   -1.5668    0.7829 H   0  0  0  0  0  0  0  0  0  0  0  0
  1  2  1  0
  1  4  1  0
  1  5  1  0
  2  3  1  0
  2  6  1  0
  2  7  1  0
  3  8  1  0
  3  9  1  0
  3 10  1  0
M  RAD  1   1   2
M  END
$$$$

     RDKit          3D

  9  8  0  0  0  0  0  0  0  0999 V2000
    1.1624   -0.3506   -0.3397 C   0  0  0  0  0  0  0  0  0  0  0  0
   -0.0543    0.1411   -0.4200 C   0  0  0  0  0  0  0  0  0  0  0  0
   -1.0451    0.2008    0.7051 C   0  0  0  0  0  0  0  0  0  0  0  0
    1.6500   -0.7869    0.5253 H   0  0  0  0  0  0  0  0  0  0  0  0
   -0.3884    0.5442   -1.3747 H   0  0  0  0  0  0  0  0  0  0  0  0
   -1.3422    1.2340    0.9013 H   0  0  0  0  0  0  0  0  0  0  0  0
   -0.6334   -0.2200    1.6227 H   0  0  0  0  0  0  0  0  0  0  0  0
   -1.9524   -0.3515    0.4481 H   0  0  0  0  0  0  0  0  0  0  0  0
    1.7622   -0.3241   -1.2430 H   0  0  0  0  0  0  0  0  0  0  0  0
  1  2  2  3
  1  4  1  0
  1  9  1  0
  2  3  1  0
  2  5  1  0
  3  6  1  0
  3  7  1  0
  3  8  1  0
M  END
>  <reaction>  (2) 
rmg_rxn_364

>  <type>  (2) 
r2h

>  <mol_properties>  (2) 
{"0": {"label": "acceptor", "atom_type": "Cd"}, "8": {"label": "a_hydrogen", "atom_type": "H0"}}

>  <electro_map>  (2) 
{"8": {"R": null, "A": null, "D": null}, "0": {"R": 1.0845926863308224, "A": null, "D": null}, "1": {"R": 1.3147686017162716, "A": 116.85345335176159, "D": null}, "2": {"R": 1.5003769718771538, "A": 153.66102678512615, "D": 359.89861882815813}, "3": {"R": 2.876009888123981, "A": 47.20643876338986, "D": 359.97433507383084}, "4": {"R": 3.0882460831739524, "A": 43.27260981849232, "D": 0.017838081123093256}, "5": {"R": 2.562430404090161, "A": 79.35267430389388, "D": 20.419798918614056}, "6": {"R": 1.7710941982227515, "A": 89.5300000149045, "D": 332.29999814614325}, "7": {"R": 1.7710941982227515, "A": 59.5206582648575, "D": 292.94845210613033}}

$$$$

     RDKit          3D

 18 16  0  0  0  0  0  0  0  0999 V2000
    0.2067    0.3655    1.2005 C   0  0  0  0  0  3  0  0  0  0  0  0
   -1.0100    0.8572    1.1202 C   0  0  0  0  0  0  0  0  0  0  0  0
   -2.0008    0.9169    2.2453 C   0  0  0  0  0  0  0  0  0  0  0  0
    0.6943   -0.0709    2.0655 H   0  0  0  0  0  0  0  0  0  0  0  0
   -1.3441    1.2603    0.1655 H   0  0  0  0  0  0  0  0  0  0  0  0
   -2.2979    1.9500    2.4415 H   0  0  0  0  0  0  0  0  0  0  0  0
   -1.5891    0.4961    3.1629 H   0  0  0  0  0  0  0  0  0  0  0  0
   -2.9081    0.3646    1.9883 H   0  0  0  0  0  0  0  0  0  0  0  0
    1.5940    0.4573   -1.0533 C   0  0  0  0  0  3  0  0  0  0  0  0
    1.3173   -0.5361   -2.1138 C   0  0  0  0  0  0  0  0  0  0  0  0
    0.2799   -1.5864   -1.7254 C   0  0  0  0  0  0  0  0  0  0  0  0
    0.9595    0.3986    0.0668 H   0  0  0  0  0  0  0  0  0  0  0  0
    2.3048    1.2701   -1.1505 H   0  0  0  0  0  0  0  0  0  0  0  0
    0.9847   -0.0164   -3.0240 H   0  0  0  0  0  0  0  0  0  0  0  0
    2.2536   -1.0374   -2.3977 H   0  0  0  0  0  0  0  0  0  0  0  0
   -0.6750   -1.1188   -1.4809 H   0  0  0  0  0  0  0  0  0  0  0  0
    0.1171   -2.2930   -2.5403 H   0  0  0  0  0  0  0  0  0  0  0  0
    0.6045   -2.1467   -0.8469 H   0  0  0  0  0  0  0  0  0  0  0  0
  1  2  2  3
  1  4  1  0
  2  3  1  0
  2  5  1  0
  3  6  1  0
  3  7  1  0
  3  8  1  0
  9 10  1  0
  9 12  1  0
  9 13  1  0
 10 11  1  0
 10 14  1  0
 10 15  1  0
 11 16  1  0
 11 17  1  0
 11 18  1  0
M  RAD  2   1   2   9   2
M  END
>  <reaction>  (3) 
rmg_rxn_364

>  <type>  (3) 
ts

>  <mol_properties>  (3) 
{"0": {"label": "*3", "atom_type": "Cd"}, "1": {"label": "*4", "atom_type": "Cd"}, "8": {"label": "*1", "atom_type": "Cs"}, "9": {"label": "*0", "atom_type": "Cs"}, "11": {"label": "*2", "atom_type": "H0"}}

$$$$
