
     RDKit          3D

  9  8  0  0  0  0  0  0  0  0999 V2000
    0.0883    1.0206    1.4203 C   0  0  0  0  0  0  0  0  0  0  0  0
   -0.0070   -0.3429    0.8016 C   0  0  0  0  0  0  0  0  0  0  0  0
    0.0072   -0.3453   -1.0137 S   0  0  0  0  0  0  0  0  0  0  0  0
   -0.8286    1.5458    1.1590 H   0  0  0  0  0  0  0  0  0  0  0  0
    0.8663    1.6604    1.0101 H   0  0  0  0  0  0  0  0  0  0  0  0
    0.0525    1.0246    2.5091 H   0  0  0  0  0  0  0  0  0  0  0  0
   -0.8828   -0.8787    1.1669 H   0  0  0  0  0  0  0  0  0  0  0  0
    0.8690   -0.9351    1.0833 H   0  0  0  0  0  0  0  0  0  0  0  0
   -1.1107    0.3747   -1.1797 H   0  0  0  0  0  0  0  0  0  0  0  0
  1  2  1  0
  1  4  1  0
  1  5  1  0
  1  6  1  0
  2  3  1  0
  2  7  1  0
  2  8  1  0
  3  9  1  0
M  END
>  <reaction>  (1) 
rmg_rxn_2774

>  <type>  (1) 
r1h

>  <mol_properties>  (1) 
{"0": {"label": "donator", "atom_type": "Cs"}, "3": {"label": "d_hydrogen", "atom_type": "H0"}}

>  <electro_map>  (1) 
{"3": {"R": null, "A": null, "D": null}, "0": {"R": 1.088532948192866, "A": null, "D": null}, "1": {"R": 1.5002859955575758, "A": 106.61874799071752, "D": null}, "2": {"R": 1.815385757415467, "A": 100.08911965451091, "D": 237.87583999386126}, "8": {"R": 1.3400445014766507, "A": 96.70109415254085, "D": 298.5628072549726}, "4": {"R": 3.2182249363154614, "A": 67.5344384759145, "D": 46.51605822842695}, "5": {"R": 1.8203279551885474, "A": 98.40509695751786, "D": 261.249255262447}, "6": {"R": 2.5097591652397413, "A": 89.49010533331978, "D": 25.277649991552593}, "7": {"R": 1.7546696350329567, "A": 71.2035946988225, "D": 59.7262432876161}}

$$$$

     RDKit          3D

  2  1  0  0  0  0  0  0  0  0999 V2000
   -0.0647    0.0288   -0.0180 O   0  0  0  0  0  1  0  0  0  0  0  0
    0.7853   -0.3495    0.2186 H   0  0  0  0  0  0  0  0  0  0  0  0
  1  2  1  0
M  RAD  1   1   2
M  END
>  <reaction>  (2) 
rmg_rxn_2774

>  <type>  (2) 
r2h

>  <mol_properties>  (2) 
{"0": {"label": "acceptor", "atom_type": "O2s"}, "1": {"label": "a_hydrogen", "atom_type": "H0"}}

>  <electro_map>  (2) 
{"1": {"R": null, "A": null, "D": null}, "0": {"R": 0.9600000227987764, "A": null, "D": null}}

$$$$

     RDKit          3D

 10  8  0  0  0  0  0  0  0  0999 V2000
   -1.6605    1.6588    0.6461 O   0  0  0  0  0  1  0  0  0  0  0  0
    0.5101    0.5549    1.2574 C   0  0  0  0  0  3  0  0  0  0  0  0
    0.4149   -0.8085    0.6388 C   0  0  0  0  0  0  0  0  0  0  0  0
    0.4290   -0.8109   -1.1765 S   0  0  0  0  0  0  0  0  0  0  0  0
   -0.5692    1.1731    0.9498 H   0  0  0  0  0  0  0  0  0  0  0  0
    1.2881    1.1948    0.8473 H   0  0  0  0  0  0  0  0  0  0  0  0
    0.4743    0.5589    2.3463 H   0  0  0  0  0  0  0  0  0  0  0  0
   -0.4610   -1.3444    1.0041 H   0  0  0  0  0  0  0  0  0  0  0  0
    1.2908   -1.4007    0.9204 H   0  0  0  0  0  0  0  0  0  0  0  0
   -0.6889   -0.0909   -1.3426 H   0  0  0  0  0  0  0  0  0  0  0  0
  1  5  1  0
  2  3  1  0
  2  6  1  0
  2  7  1  0
  3  4  1  0
  3  8  1  0
  3  9  1  0
  4 10  1  0
M  RAD  2   1   2   2   2
M  END
>  <reaction>  (3) 
rmg_rxn_2774

>  <type>  (3) 
ts

>  <mol_properties>  (3) 
{"0": {"label": "*1", "atom_type": "O2s"}, "1": {"label": "*3", "atom_type": "Cs"}, "2": {"label": "*4", "atom_type": "Cs"}, "4": {"label": "*2", "atom_type": "H0"}}

$$$$
