
     RDKit          3D

  9  9  0  0  0  0  0  0  0  0999 V2000
    0.3460   -0.7740   -0.6169 C   0  0  0  0  0  0  0  0  0  0  0  0
   -0.1370   -0.6845    0.8223 C   0  0  0  0  0  0  0  0  0  0  0  0
   -0.3056    0.7704    0.5933 N   0  0  0  0  0  0  0  0  0  0  0  0
    0.0269    0.6188   -0.7764 O   0  0  0  0  0  0  0  0  0  0  0  0
   -0.2254   -1.4009   -1.3026 H   0  0  0  0  0  0  0  0  0  0  0  0
    1.4166   -0.9517   -0.7420 H   0  0  0  0  0  0  0  0  0  0  0  0
    0.5824   -0.9375    1.6005 H   0  0  0  0  0  0  0  0  0  0  0  0
   -1.0933   -1.1663    1.0260 H   0  0  0  0  0  0  0  0  0  0  0  0
    0.5346    1.2333    0.9950 H   0  0  0  0  0  0  0  0  0  0  0  0
  1  2  1  0
  1  4  1  0
  1  5  1  0
  1  6  1  0
  2  3  1  0
  2  7  1  0
  2  8  1  0
  3  4  1  0
  3  9  1  0
M  END
>  <reaction>  (1) 
rmg_rxn_14070

>  <type>  (1) 
r1h

>  <mol_properties>  (1) 
{"2": {"label": "donator", "atom_type": "N3s"}, "8": {"label": "d_hydrogen", "atom_type": "H0"}}

>  <electro_map>  (1) 
{"8": {"R": null, "A": null, "D": null}, "2": {"R": 1.0399999763415406, "A": null, "D": null}, "3": {"R": 1.417608714568604, "A": 103.37142011428266, "D": null}, "0": {"R": 1.4378254563482222, "A": 98.47133561534633, "D": 278.62654236465596}, "1": {"R": 1.5207196371699379, "A": 88.7049526283206, "D": 5.42276361874948}, "4": {"R": 2.2440812357853615, "A": 25.52780488703435, "D": 113.98630381838308}, "5": {"R": 1.792199528727785, "A": 65.65596393898646, "D": 26.214694187306524}, "6": {"R": 2.4866991987307716, "A": 89.35290916058715, "D": 13.666789702028963}, "7": {"R": 1.7861759937670865, "A": 90.63033799438583, "D": 352.8418996671058}}

$$$$

     RDKit          3D

 10  9  0  0  0  0  0  0  0  0999 V2000
   -2.1084    0.1547    1.2158 H   0  0  0  0  0  0  0  0  0  0  0  0
   -1.0956    0.4200    1.4734 C   0  0  0  0  0  0  0  0  0  0  0  0
   -0.3353    0.3863    0.4619 C   0  0  0  0  0  0  0  0  0  0  0  0
    0.3335    0.2935   -0.6770 C   0  0  0  0  0  0  0  0  0  0  0  0
    1.0428   -0.9426   -1.1349 C   0  0  0  0  0  0  0  0  0  0  0  0
   -0.9663    0.6789    2.5121 H   0  0  0  0  0  0  0  0  0  0  0  0
    0.3714    1.1665   -1.3207 H   0  0  0  0  0  0  0  0  0  0  0  0
    0.6185   -1.3008   -2.0779 H   0  0  0  0  0  0  0  0  0  0  0  0
    0.9673   -1.7396   -0.3957 H   0  0  0  0  0  0  0  0  0  0  0  0
    2.1020   -0.7441   -1.3178 H   0  0  0  0  0  0  0  0  0  0  0  0
  1  2  1  0
  2  3  2  0
  2  6  1  0
  3  4  2  0
  4  5  1  0
  4  7  1  0
  5  8  1  0
  5  9  1  0
  5 10  1  0
M  END
>  <reaction>  (2) 
rmg_rxn_14070

>  <type>  (2) 
r2h

>  <mol_properties>  (2) 
{"0": {"label": "a_hydrogen", "atom_type": "H0"}, "1": {"label": "acceptor", "atom_type": "Cd"}}

>  <electro_map>  (2) 
{"0": {"R": null, "A": null, "D": null}, "1": {"R": 1.0782155537930642, "A": null, "D": null}, "2": {"R": 1.265826691933831, "A": 111.51041361592074, "D": null}, "3": {"R": 1.324063722431194, "A": 141.93627451533786, "D": 178.9889539526855}, "4": {"R": 1.4969394773481604, "A": 124.07923464508711, "D": 272.96602358742865}, "5": {"R": 4.468437130519383, "A": 40.325242040694164, "D": 349.74401492838166}, "6": {"R": 4.088684442380012, "A": 29.66620349064119, "D": 355.1576011281126}, "7": {"R": 2.5927393219565813, "A": 101.03883954777783, "D": 18.684394328654943}, "8": {"R": 1.773194350996427, "A": 88.69111521507101, "D": 330.03707654254}, "9": {"R": 1.7688740231870685, "A": 59.49140923152592, "D": 292.80243496331946}}

$$$$

     RDKit          3D

 18 17  0  0  0  0  0  0  0  0999 V2000
   -1.0820   -1.3023   -0.5889 C   0  0  0  0  0  0  0  0  0  0  0  0
   -1.5650   -1.2127    0.8503 C   0  0  0  0  0  0  0  0  0  0  0  0
   -1.7336    0.2421    0.6213 N   0  0  0  0  0  0  0  0  0  0  0  0
   -1.4011    0.0906   -0.7484 O   0  0  0  0  0  0  0  0  0  0  0  0
   -1.6534   -1.9292   -1.2745 H   0  0  0  0  0  0  0  0  0  0  0  0
   -0.0114   -1.4799   -0.7140 H   0  0  0  0  0  0  0  0  0  0  0  0
   -0.8456   -1.4658    1.6285 H   0  0  0  0  0  0  0  0  0  0  0  0
   -2.5213   -1.6946    1.0540 H   0  0  0  0  0  0  0  0  0  0  0  0
   -0.7766    0.7694    1.0788 H   0  0  0  0  0  0  0  0  0  0  0  0
    0.5717    1.1226    1.4218 C   0  0  0  0  0  0  0  0  0  0  0  0
    1.3320    1.0889    0.4103 C   0  0  0  0  0  0  0  0  0  0  0  0
    2.0008    0.9961   -0.7286 C   0  0  0  0  0  3  0  0  0  0  0  0
    2.7101   -0.2400   -1.1866 C   0  0  0  0  0  0  0  0  0  0  0  0
    0.7009    1.3815    2.4605 H   0  0  0  0  0  0  0  0  0  0  0  0
    2.0387    1.8691   -1.3723 H   0  0  0  0  0  0  0  0  0  0  0  0
    2.2857   -0.5982   -2.1295 H   0  0  0  0  0  0  0  0  0  0  0  0
    2.6346   -1.0370   -0.4473 H   0  0  0  0  0  0  0  0  0  0  0  0
    3.7692   -0.0415   -1.3694 H   0  0  0  0  0  0  0  0  0  0  0  0
  1  2  1  0
  1  4  1  0
  1  5  1  0
  1  6  1  0
  2  3  1  0
  2  7  1  0
  2  8  1  0
  3  4  1  0
  3  9  1  0
 10 11  3  0
 10 14  1  0
 11 12  1  0
 12 13  1  0
 12 15  1  0
 13 16  1  0
 13 17  1  0
 13 18  1  0
M  RAD  1  12   2
M  END
>  <reaction>  (3) 
rmg_rxn_14070

>  <type>  (3) 
ts

>  <mol_properties>  (3) 
{"2": {"label": "*1", "atom_type": "N3s"}, "3": {"label": "*0", "atom_type": "O2s"}, "8": {"label": "*2", "atom_type": "H0"}, "9": {"label": "*3", "atom_type": "Ct"}, "10": {"label": "*4", "atom_type": "Ct"}}

$$$$
