
     RDKit          3D

 10  9  0  0  0  0  0  0  0  0999 V2000
    1.2696    1.3237    0.4485 C   0  0  0  0  0  0  0  0  0  0  0  0
    0.3520    0.5850   -0.0424 C   0  0  0  0  0  0  0  0  0  0  0  0
   -0.5056   -0.2581   -0.5768 C   0  0  0  0  0  0  0  0  0  0  0  0
   -1.0485   -1.4652    0.1233 C   0  0  0  0  0  0  0  0  0  0  0  0
    2.2877    1.0190    0.2509 H   0  0  0  0  0  0  0  0  0  0  0  0
    1.1972    2.2214    1.0463 H   0  0  0  0  0  0  0  0  0  0  0  0
   -0.8551   -0.0610   -1.5863 H   0  0  0  0  0  0  0  0  0  0  0  0
   -2.1372   -1.4096    0.1992 H   0  0  0  0  0  0  0  0  0  0  0  0
   -0.6337   -1.5624    1.1252 H   0  0  0  0  0  0  0  0  0  0  0  0
   -0.8114   -2.3703   -0.4417 H   0  0  0  0  0  0  0  0  0  0  0  0
  1  2  2  0
  1  5  1  0
  1  6  1  0
  2  3  2  0
  3  4  1  0
  3  7  1  0
  4  8  1  0
  4  9  1  0
  4 10  1  0
M  END
>  <reaction>  (1) 
rmg_rxn_14034

>  <type>  (1) 
r1h

>  <mol_properties>  (1) 
{"0": {"label": "donator", "atom_type": "Cd"}, "4": {"label": "d_hydrogen", "atom_type": "H0"}}

>  <electro_map>  (1) 
{"4": {"R": null, "A": null, "D": null}, "0": {"R": 1.0808860144108567, "A": null, "D": null}, "1": {"R": 1.2762619710691463, "A": 116.34218427119752, "D": null}, "2": {"R": 1.3159969157527738, "A": 145.8000475058433, "D": 181.63755274264813}, "3": {"R": 1.4973736659081542, "A": 124.25846429780191, "D": 80.37236951691527}, "5": {"R": 4.414324133216838, "A": 40.53826741315198, "D": 12.881319048830262}, "6": {"R": 4.0436784646547625, "A": 30.03706026581127, "D": 6.501023700285109}, "7": {"R": 2.5788501066598712, "A": 95.552344767417, "D": 22.241384140644346}, "8": {"R": 1.7723763269663892, "A": 89.14330796466221, "D": 316.38927492855476}, "9": {"R": 1.7717924848985127, "A": 59.48255491967992, "D": 292.63600816079264}}

$$$$

     RDKit          3D

  9  8  0  0  0  0  0  0  0  0999 V2000
   -0.2257   -1.1481    0.5758 C   0  0  0  0  0  0  0  0  0  0  0  0
   -0.0266   -0.1222   -0.5269 C   0  0  0  0  0  0  0  0  0  0  0  0
    0.3005    1.1424   -0.0664 O   0  0  0  0  0  0  0  0  0  0  0  0
   -1.0587   -0.8540    1.2170 H   0  0  0  0  0  0  0  0  0  0  0  0
   -0.4449   -2.1324    0.1557 H   0  0  0  0  0  0  0  0  0  0  0  0
    0.6703   -1.2239    1.1932 H   0  0  0  0  0  0  0  0  0  0  0  0
    0.7929   -0.4193   -1.1966 H   0  0  0  0  0  0  0  0  0  0  0  0
   -0.9212   -0.0743   -1.1706 H   0  0  0  0  0  0  0  0  0  0  0  0
   -0.5267    1.5587    0.1868 H   0  0  0  0  0  0  0  0  0  0  0  0
  1  2  1  0
  1  4  1  0
  1  5  1  0
  1  6  1  0
  2  3  1  0
  2  7  1  0
  2  8  1  0
  3  9  1  0
M  END
>  <reaction>  (2) 
rmg_rxn_14034

>  <type>  (2) 
r2h

>  <mol_properties>  (2) 
{"2": {"label": "acceptor", "atom_type": "O2s"}, "8": {"label": "a_hydrogen", "atom_type": "H0"}}

>  <electro_map>  (2) 
{"8": {"R": null, "A": null, "D": null}, "2": {"R": 0.9599999917546908, "A": null, "D": null}, "1": {"R": 1.3850424076983137, "A": 106.26748793012982, "D": null}, "0": {"R": 1.5192299669183769, "A": 106.9328917945656, "D": 109.01611554014053}, "3": {"R": 1.0915926228715345, "A": 110.14604082857035, "D": 62.13599077481728}, "4": {"R": 1.7713176812894704, "A": 35.81900040910874, "D": 121.4089384146003}, "5": {"R": 1.7734736636335502, "A": 59.846937801299234, "D": 36.736757976039954}, "6": {"R": 2.524557614994798, "A": 68.90401014942077, "D": 257.60251988848523}, "7": {"R": 1.7487133609622771, "A": 90.06726753107203, "D": 57.14604304395105}}

$$$$

     RDKit          3D

 18 16  0  0  0  0  0  0  0  0999 V2000
    1.5685   -1.5371    0.5522 C   0  0  0  0  0  0  0  0  0  0  0  0
    1.7676   -0.5113   -0.5506 C   0  0  0  0  0  0  0  0  0  0  0  0
    2.0947    0.7533   -0.0900 O   0  0  0  0  0  1  0  0  0  0  0  0
    0.7354   -1.2430    1.1933 H   0  0  0  0  0  0  0  0  0  0  0  0
    1.3493   -2.5215    0.1321 H   0  0  0  0  0  0  0  0  0  0  0  0
    2.4645   -1.6129    1.1695 H   0  0  0  0  0  0  0  0  0  0  0  0
    2.5871   -0.8084   -1.2203 H   0  0  0  0  0  0  0  0  0  0  0  0
    0.8730   -0.4633   -1.1943 H   0  0  0  0  0  0  0  0  0  0  0  0
   -0.1755    1.6579    0.4742 C   0  0  0  0  0  0  0  0  0  0  0  0
   -1.0932    0.9192   -0.0167 C   0  0  0  0  0  0  0  0  0  0  0  0
   -1.9507    0.0761   -0.5511 C   0  0  0  0  0  0  0  0  0  0  0  0
   -2.4937   -1.1311    0.1490 C   0  0  0  0  0  0  0  0  0  0  0  0
    0.9908    1.3089    0.2479 H   0  0  0  0  0  0  0  0  0  0  0  0
   -0.2480    2.5556    1.0720 H   0  0  0  0  0  0  0  0  0  0  0  0
   -2.3002    0.2732   -1.5606 H   0  0  0  0  0  0  0  0  0  0  0  0
   -3.5823   -1.0754    0.2249 H   0  0  0  0  0  0  0  0  0  0  0  0
   -2.0788   -1.2282    1.1509 H   0  0  0  0  0  0  0  0  0  0  0  0
   -2.2565   -2.0361   -0.4160 H   0  0  0  0  0  0  0  0  0  0  0  0
  1  2  1  0
  1  4  1  0
  1  5  1  0
  1  6  1  0
  2  3  1  0
  2  7  1  0
  2  8  1  0
  9 10  2  0
  9 13  1  0
  9 14  1  0
 10 11  2  0
 11 12  1  0
 11 15  1  0
 12 16  1  0
 12 17  1  0
 12 18  1  0
M  RAD  1   3   2
M  END
>  <reaction>  (3) 
rmg_rxn_14034

>  <type>  (3) 
ts

>  <mol_properties>  (3) 
{"1": {"label": "*4", "atom_type": "Cs"}, "2": {"label": "*3", "atom_type": "O2s"}, "8": {"label": "*1", "atom_type": "Cd"}, "9": {"label": "*0", "atom_type": "Cdd"}, "12": {"label": "*2", "atom_type": "H0"}}

$$$$
