
     RDKit          3D

 10  9  0  0  0  0  0  0  0  0999 V2000
   -0.1801    1.8912   -0.1418 C   0  0  0  0  0  0  0  0  0  0  0  0
   -0.1348    0.6331    0.1788 C   0  0  0  0  0  0  0  0  0  0  0  0
   -0.0825   -0.6383    0.4864 C   0  0  0  0  0  0  0  0  0  0  0  0
    0.3148   -1.7086   -0.4376 C   0  0  0  0  0  0  0  0  0  0  0  0
   -1.0956    2.3518   -0.4974 H   0  0  0  0  0  0  0  0  0  0  0  0
    0.6996    2.5220   -0.0635 H   0  0  0  0  0  0  0  0  0  0  0  0
   -0.3024   -0.9146    1.5142 H   0  0  0  0  0  0  0  0  0  0  0  0
    1.3664   -1.9309   -0.2712 H   0  0  0  0  0  0  0  0  0  0  0  0
    0.2785   -1.4326   -1.4887 H   0  0  0  0  0  0  0  0  0  0  0  0
   -0.1678   -2.6649   -0.2479 H   0  0  0  0  0  0  0  0  0  0  0  0
  1  2  2  0
  1  5  1  0
  1  6  1  0
  2  3  2  0
  3  4  1  0
  3  7  1  0
  4  8  1  0
  4  9  1  0
  4 10  1  0
M  END
>  <reaction>  (1) 
rmg_rxn_14136

>  <type>  (1) 
r1h

>  <mol_properties>  (1) 
{"3": {"label": "donator", "atom_type": "Cs"}, "7": {"label": "d_hydrogen", "atom_type": "H0"}}

>  <electro_map>  (1) 
{"7": {"R": null, "A": null, "D": null}, "3": {"R": 1.0876169185708655, "A": null, "D": null}, "2": {"R": 1.4686915609218454, "A": 108.31895421730604, "D": null}, "1": {"R": 1.3090709670160228, "A": 123.00162260168692, "D": 256.4098171782928}, "0": {"R": 1.0, "A": 90.0, "D": 180.0}, "4": {"R": 1.299158269468864, "A": 90.0, "D": 180.0}, "5": {"R": 1.0847521563014226, "A": 121.48725325527134, "D": 92.94883701701374}, "6": {"R": 1.8547552724666394, "A": 31.283535142156623, "D": 180.00744499745193}, "8": {"R": 3.9119328779457265, "A": 76.45686642726713, "D": 345.6851516489912}, "9": {"R": 3.102128215095344, "A": 73.04111639071395, "D": 82.03512398831548}}

$$$$

     RDKit          3D

 14 13  0  0  0  0  0  0  0  0999 V2000
   -1.4506   -1.7636   -0.2563 H   0  0  0  0  0  0  0  0  0  0  0  0
   -0.3912   -1.8961   -0.0446 C   0  0  0  0  0  0  0  0  0  0  0  0
    0.0351   -0.5677    0.5107 C   0  0  0  0  0  0  0  0  0  0  0  0
    0.0451    0.5456   -0.5313 C   0  0  0  0  0  0  0  0  0  0  0  0
    0.3585    1.9089    0.0679 C   0  0  0  0  0  0  0  0  0  0  0  0
   -0.3953   -2.7269    0.6577 H   0  0  0  0  0  0  0  0  0  0  0  0
    0.0345   -2.1656   -1.0099 H   0  0  0  0  0  0  0  0  0  0  0  0
    1.0333   -0.6500    0.9614 H   0  0  0  0  0  0  0  0  0  0  0  0
   -0.6374   -0.2859    1.3293 H   0  0  0  0  0  0  0  0  0  0  0  0
    0.7763    0.3031   -1.3088 H   0  0  0  0  0  0  0  0  0  0  0  0
   -0.9301    0.5818   -1.0242 H   0  0  0  0  0  0  0  0  0  0  0  0
    1.3399    1.9143    0.5481 H   0  0  0  0  0  0  0  0  0  0  0  0
   -0.3811    2.1753    0.8273 H   0  0  0  0  0  0  0  0  0  0  0  0
    0.3552    2.6906   -0.6937 H   0  0  0  0  0  0  0  0  0  0  0  0
  1  2  1  0
  2  3  1  0
  2  6  1  0
  2  7  1  0
  3  4  1  0
  3  8  1  0
  3  9  1  0
  4  5  1  0
  4 10  1  0
  4 11  1  0
  5 12  1  0
  5 13  1  0
  5 14  1  0
M  END
>  <reaction>  (2) 
rmg_rxn_14136

>  <type>  (2) 
r2h

>  <mol_properties>  (2) 
{"0": {"label": "a_hydrogen", "atom_type": "H0"}, "1": {"label": "acceptor", "atom_type": "Cs"}}

>  <electro_map>  (2) 
{"0": {"R": null, "A": null, "D": null}, "1": {"R": 1.0883858065688057, "A": null, "D": null}, "2": {"R": 1.5015929029484998, "A": 103.91741245527768, "D": null}, "3": {"R": 1.5248628648477858, "A": 100.0527122870873, "D": 119.00000753303402}, "4": {"R": 1.521794846948208, "A": 112.73167297527925, "D": 174.90535590298975}, "5": {"R": 4.733579260298215, "A": 30.560119666857346, "D": 357.4445755905123}, "6": {"R": 1.811334235086639, "A": 62.87077163723365, "D": 18.675896873464325}, "7": {"R": 2.6796661465074862, "A": 65.56792107600081, "D": 28.78116418725339}, "8": {"R": 1.749029230888821, "A": 85.20726087120609, "D": 295.48375744734494}, "9": {"R": 3.050431743143924, "A": 54.23792699826177, "D": 299.9011211092061}, "10": {"R": 1.752287595668054, "A": 55.87044762095067, "D": 175.44366028428422}, "11": {"R": 3.066133484584141, "A": 55.34944712039256, "D": 60.485516112408355}, "12": {"R": 1.762960871508385, "A": 54.74410554757391, "D": 180.39508768168312}, "13": {"R": 1.766615733126209, "A": 59.99829765497317, "D": 294.63454415667627}}

$$$$

     RDKit          3D

 23 21  0  0  0  0  0  0  0  0999 V2000
   -1.8804    2.0128   -0.1877 C   0  0  0  0  0  0  0  0  0  0  0  0
   -1.8351    0.7546    0.1329 C   0  0  0  0  0  0  0  0  0  0  0  0
   -1.7828   -0.5167    0.4405 C   0  0  0  0  0  0  0  0  0  0  0  0
   -1.3855   -1.5870   -0.4835 C   0  0  0  0  0  0  0  0  0  0  0  0
   -2.7959    2.4733   -0.5434 H   0  0  0  0  0  0  0  0  0  0  0  0
   -1.0007    2.6435   -0.1094 H   0  0  0  0  0  0  0  0  0  0  0  0
   -2.0027   -0.7930    1.4683 H   0  0  0  0  0  0  0  0  0  0  0  0
   -0.1287   -1.8527   -0.2847 H   0  0  0  0  0  0  0  0  0  0  0  0
   -1.4218   -1.3110   -1.5346 H   0  0  0  0  0  0  0  0  0  0  0  0
   -1.8681   -2.5434   -0.2938 H   0  0  0  0  0  0  0  0  0  0  0  0
    1.2401   -2.0240   -0.0112 C   0  0  0  0  0  3  0  0  0  0  0  0
    1.6664   -0.6956    0.5441 C   0  0  0  0  0  0  0  0  0  0  0  0
    1.6765    0.4177   -0.4978 C   0  0  0  0  0  0  0  0  0  0  0  0
    1.9898    1.7811    0.1013 C   0  0  0  0  0  0  0  0  0  0  0  0
    1.2361   -2.8547    0.6912 H   0  0  0  0  0  0  0  0  0  0  0  0
    1.6659   -2.2934   -0.9765 H   0  0  0  0  0  0  0  0  0  0  0  0
    2.6647   -0.7778    0.9948 H   0  0  0  0  0  0  0  0  0  0  0  0
    0.9940   -0.4138    1.3628 H   0  0  0  0  0  0  0  0  0  0  0  0
    2.4077    0.1753   -1.2753 H   0  0  0  0  0  0  0  0  0  0  0  0
    0.7012    0.4539   -0.9907 H   0  0  0  0  0  0  0  0  0  0  0  0
    2.9713    1.7865    0.5816 H   0  0  0  0  0  0  0  0  0  0  0  0
    1.2503    2.0475    0.8607 H   0  0  0  0  0  0  0  0  0  0  0  0
    1.9866    2.5628   -0.6602 H   0  0  0  0  0  0  0  0  0  0  0  0
  1  2  2  0
  1  5  1  0
  1  6  1  0
  2  3  2  0
  3  4  1  0
  3  7  1  0
  4  8  1  0
  4  9  1  0
  4 10  1  0
 11 12  1  0
 11 15  1  0
 11 16  1  0
 12 13  1  0
 12 17  1  0
 12 18  1  0
 13 14  1  0
 13 19  1  0
 13 20  1  0
 14 21  1  0
 14 22  1  0
 14 23  1  0
M  RAD  1  11   2
M  END
>  <reaction>  (3) 
rmg_rxn_14136

>  <type>  (3) 
ts

>  <mol_properties>  (3) 
{"2": {"label": "*0", "atom_type": "Cd"}, "3": {"label": "*1", "atom_type": "Cs"}, "7": {"label": "*2", "atom_type": "H0"}, "10": {"label": "*3", "atom_type": "Cs"}, "11": {"label": "*4", "atom_type": "Cs"}}

$$$$
