
     RDKit          3D

  4  4  0  0  0  0  0  0  0  0999 V2000
   -0.2393   -0.5242    0.5805 O   0  0  0  0  0  0  0  0  0  0  0  0
   -0.0128   -0.1737   -0.7981 O   0  0  0  0  0  0  0  0  0  0  0  0
    0.3327    0.6923    0.2292 N   0  0  0  0  0  0  0  0  0  0  0  0
   -0.4780    1.3429    0.2623 H   0  0  0  0  0  0  0  0  0  0  0  0
  1  3  1  0
  1  2  1  0
  2  3  1  0
  3  4  1  0
M  END
>  <reaction>  (1) 
rmg_rxn_14112

>  <type>  (1) 
r1h

>  <mol_properties>  (1) 
{"2": {"label": "donator", "atom_type": "N3s"}, "3": {"label": "d_hydrogen", "atom_type": "H0"}}

>  <electro_map>  (1) 
{"3": {"R": null, "A": null, "D": null}, "2": {"R": 1.040000033653699, "A": null, "D": null}, "0": {"R": 1.3893814098435093, "A": 102.64078791597562, "D": null}, "1": {"R": 1.440308108613795, "A": 67.7977566165552, "D": 293.93909813093757}}

$$$$

     RDKit          3D

 10  9  0  0  0  0  0  0  0  0999 V2000
    2.2386    0.8734    0.2892 H   0  0  0  0  0  0  0  0  0  0  0  0
    1.2770    1.3579    0.2602 C   0  0  0  0  0  0  0  0  0  0  0  0
    0.3861    0.5576   -0.1359 C   0  0  0  0  0  0  0  0  0  0  0  0
   -0.4414   -0.3918   -0.5554 C   0  0  0  0  0  0  0  0  0  0  0  0
   -1.1554   -1.3429    0.3494 C   0  0  0  0  0  0  0  0  0  0  0  0
    1.3317    2.3855    0.5784 H   0  0  0  0  0  0  0  0  0  0  0  0
   -0.6150   -0.4777   -1.6235 H   0  0  0  0  0  0  0  0  0  0  0  0
   -2.2380   -1.2511    0.2294 H   0  0  0  0  0  0  0  0  0  0  0  0
   -0.9015   -1.1653    1.3928 H   0  0  0  0  0  0  0  0  0  0  0  0
   -0.8905   -2.3728    0.0968 H   0  0  0  0  0  0  0  0  0  0  0  0
  1  2  1  0
  2  3  2  0
  2  6  1  0
  3  4  2  0
  4  5  1  0
  4  7  1  0
  5  8  1  0
  5  9  1  0
  5 10  1  0
M  END
>  <reaction>  (2) 
rmg_rxn_14112

>  <type>  (2) 
r2h

>  <mol_properties>  (2) 
{"0": {"label": "a_hydrogen", "atom_type": "H0"}, "1": {"label": "acceptor", "atom_type": "Cd"}}

>  <electro_map>  (2) 
{"0": {"R": null, "A": null, "D": null}, "1": {"R": 1.07713277741407, "A": null, "D": null}, "2": {"R": 1.2614280436643845, "A": 110.71028470356248, "D": null}, "3": {"R": 1.3274449570877112, "A": 141.84376424827906, "D": 180.61889359462057}, "4": {"R": 1.4943093597278276, "A": 124.17340408020429, "D": 85.90454604990339}, "5": {"R": 4.487645249420185, "A": 40.30001285806443, "D": 9.722130765538441}, "6": {"R": 4.103188386821173, "A": 29.53466289467278, "D": 4.79217925493634}, "7": {"R": 2.5818112924584016, "A": 97.0163232987702, "D": 21.76095775459262}, "8": {"R": 1.7740882654219012, "A": 88.99988444172116, "D": 318.3053555304412}, "9": {"R": 1.7714097449954702, "A": 59.461083683689516, "D": 292.7918100901251}}

$$$$

     RDKit          3D

 13 12  0  0  0  0  0  0  0  0999 V2000
    1.4009   -0.9107    0.6070 O   0  0  0  0  0  0  0  0  0  0  0  0
    1.6274   -0.5602   -0.7715 O   0  0  0  0  0  0  0  0  0  0  0  0
    1.9729    0.3058    0.2558 N   0  0  0  0  0  0  0  0  0  0  0  0
    1.0193    1.0711    0.2947 H   0  0  0  0  0  0  0  0  0  0  0  0
   -0.2286    1.6998    0.2571 C   0  0  0  0  0  0  0  0  0  0  0  0
   -1.1196    0.8995   -0.1390 C   0  0  0  0  0  0  0  0  0  0  0  0
   -1.9471   -0.0499   -0.5585 C   0  0  0  0  0  3  0  0  0  0  0  0
   -2.6611   -1.0010    0.3463 C   0  0  0  0  0  0  0  0  0  0  0  0
   -0.1739    2.7274    0.5753 H   0  0  0  0  0  0  0  0  0  0  0  0
   -2.1206   -0.1358   -1.6267 H   0  0  0  0  0  0  0  0  0  0  0  0
   -3.7437   -0.9092    0.2263 H   0  0  0  0  0  0  0  0  0  0  0  0
   -2.4071   -0.8234    1.3897 H   0  0  0  0  0  0  0  0  0  0  0  0
   -2.3962   -2.0310    0.0937 H   0  0  0  0  0  0  0  0  0  0  0  0
  1  3  1  0
  1  2  1  0
  2  3  1  0
  3  4  1  0
  5  6  3  0
  5  9  1  0
  6  7  1  0
  7  8  1  0
  7 10  1  0
  8 11  1  0
  8 12  1  0
  8 13  1  0
M  RAD  1   7   2
M  END
>  <reaction>  (3) 
rmg_rxn_14112

>  <type>  (3) 
ts

>  <mol_properties>  (3) 
{"0": {"label": "*0", "atom_type": "O2s"}, "2": {"label": "*1", "atom_type": "N3s"}, "3": {"label": "*2", "atom_type": "H0"}, "4": {"label": "*3", "atom_type": "Ct"}, "5": {"label": "*4", "atom_type": "Ct"}}

$$$$
