
     RDKit          3D

 10  9  0  0  0  0  0  0  0  0999 V2000
   -0.3680   -0.4810   -1.8088 C   0  0  0  0  0  0  0  0  0  0  0  0
    0.0502   -0.3115   -0.5902 C   0  0  0  0  0  0  0  0  0  0  0  0
    0.4798   -0.1287    0.6313 C   0  0  0  0  0  0  0  0  0  0  0  0
   -0.0936    0.8257    1.5912 C   0  0  0  0  0  0  0  0  0  0  0  0
    0.0689    0.0684   -2.6358 H   0  0  0  0  0  0  0  0  0  0  0  0
   -1.1666   -1.1780   -2.0396 H   0  0  0  0  0  0  0  0  0  0  0  0
    1.2834   -0.7660    0.9896 H   0  0  0  0  0  0  0  0  0  0  0  0
   -0.7978    0.2865    2.2209 H   0  0  0  0  0  0  0  0  0  0  0  0
   -0.7006    1.6093    1.1434 H   0  0  0  0  0  0  0  0  0  0  0  0
    0.6251    1.2146    2.3092 H   0  0  0  0  0  0  0  0  0  0  0  0
  1  2  2  0
  1  5  1  0
  1  6  1  0
  2  3  2  0
  3  4  1  0
  3  7  1  0
  4  8  1  0
  4  9  1  0
  4 10  1  0
M  END
>  <reaction>  (1) 
rmg_rxn_14147

>  <type>  (1) 
r1h

>  <mol_properties>  (1) 
{"3": {"label": "donator", "atom_type": "Cs"}, "7": {"label": "d_hydrogen", "atom_type": "H0"}}

>  <electro_map>  (1) 
{"7": {"R": null, "A": null, "D": null}, "3": {"R": 1.0877453691633403, "A": null, "D": null}, "2": {"R": 1.4700593996048932, "A": 107.98393281993933, "D": null}, "1": {"R": 1.3076131306386611, "A": 122.66258399013124, "D": 255.56581065246928}, "0": {"R": 1.0, "A": 90.0, "D": 180.0}, "4": {"R": 1.2994958523562659, "A": 90.0, "D": 180.0}, "5": {"R": 1.0847268800612404, "A": 120.94039698113568, "D": 92.61222769911983}, "6": {"R": 1.8534439121277564, "A": 31.31647382870479, "D": 179.91724761010084}, "8": {"R": 3.9176222399815113, "A": 76.18207217404472, "D": 345.38604531310267}, "9": {"R": 3.098659434716632, "A": 73.65634398502804, "D": 81.36346878779361}}

$$$$

     RDKit          3D

 15 14  0  0  0  0  0  0  0  0999 V2000
   -0.5410    2.2364   -0.8668 H   0  0  0  0  0  0  0  0  0  0  0  0
   -1.2554    1.6757   -0.2680 C   0  0  0  0  0  0  0  0  0  0  0  0
   -0.4982    1.0266    0.8514 C   0  0  0  0  0  0  0  0  0  0  0  0
    1.0018    0.1186    0.3741 S   0  0  0  0  0  0  0  0  0  0  0  0
    0.3733   -1.0030   -0.8995 C   0  0  0  0  0  0  0  0  0  0  0  0
   -0.7081   -1.9623   -0.4314 C   0  0  0  0  0  0  0  0  0  0  0  0
   -1.6702    1.0021   -1.0145 H   0  0  0  0  0  0  0  0  0  0  0  0
   -1.9714    2.4310    0.0486 H   0  0  0  0  0  0  0  0  0  0  0  0
   -1.1480    0.3517    1.4182 H   0  0  0  0  0  0  0  0  0  0  0  0
   -0.1377    1.7766    1.5575 H   0  0  0  0  0  0  0  0  0  0  0  0
    0.0387   -0.4173   -1.7580 H   0  0  0  0  0  0  0  0  0  0  0  0
    1.2592   -1.5534   -1.2213 H   0  0  0  0  0  0  0  0  0  0  0  0
   -1.6125   -1.4291   -0.1333 H   0  0  0  0  0  0  0  0  0  0  0  0
   -0.9811   -2.6461   -1.2380 H   0  0  0  0  0  0  0  0  0  0  0  0
   -0.3662   -2.5511    0.4206 H   0  0  0  0  0  0  0  0  0  0  0  0
  1  2  1  0
  2  3  1  0
  2  7  1  0
  2  8  1  0
  3  4  1  0
  3  9  1  0
  3 10  1  0
  4  5  1  0
  5  6  1  0
  5 11  1  0
  5 12  1  0
  6 13  1  0
  6 14  1  0
  6 15  1  0
M  END
>  <reaction>  (2) 
rmg_rxn_14147

>  <type>  (2) 
r2h

>  <mol_properties>  (2) 
{"0": {"label": "a_hydrogen", "atom_type": "H0"}, "1": {"label": "acceptor", "atom_type": "Cs"}}

>  <electro_map>  (2) 
{"0": {"R": null, "A": null, "D": null}, "1": {"R": 1.0877434512839677, "A": null, "D": null}, "2": {"R": 1.499299760133608, "A": 107.60842140338333, "D": null}, "3": {"R": 1.817247290377946, "A": 95.14446492359761, "D": 136.96092161313595}, "4": {"R": 1.8096593761811346, "A": 101.99934472879983, "D": 306.5044852925107}, "5": {"R": 1.5195057530948524, "A": 114.93698832110542, "D": 299.7841361761308}, "6": {"R": 3.170742490438766, "A": 64.4720134085461, "D": 78.51231463006147}, "7": {"R": 1.8062820986103283, "A": 132.99771048800392, "D": 261.77060584847175}, "8": {"R": 2.6224493622959426, "A": 68.14716760145902, "D": 0.7267871965037924}, "9": {"R": 1.752280384402777, "A": 65.02726708710952, "D": 121.27577431469192}, "10": {"R": 3.9796024237032306, "A": 60.72400081998468, "D": 283.9412087520522}, "11": {"R": 1.7516599003630577, "A": 97.65325636358857, "D": 272.39857976909263}, "12": {"R": 3.073419993069022, "A": 55.33156655926709, "D": 69.69405795046104}, "13": {"R": 1.7607542387708073, "A": 54.1893901112671, "D": 105.04155827299176}, "14": {"R": 1.7714780494047069, "A": 59.996769149378494, "D": 66.2076497013727}}

$$$$

     RDKit          3D

 24 22  0  0  0  0  0  0  0  0999 V2000
   -0.0343    0.9969   -3.7240 C   0  0  0  0  0  0  0  0  0  0  0  0
    0.3840    1.1664   -2.5054 C   0  0  0  0  0  0  0  0  0  0  0  0
    0.8135    1.3492   -1.2839 C   0  0  0  0  0  0  0  0  0  0  0  0
    0.2402    2.3035   -0.3239 C   0  0  0  0  0  0  0  0  0  0  0  0
    0.4027    1.5463   -4.5510 H   0  0  0  0  0  0  0  0  0  0  0  0
   -0.8328    0.2999   -3.9548 H   0  0  0  0  0  0  0  0  0  0  0  0
    1.6171    0.7119   -0.9256 H   0  0  0  0  0  0  0  0  0  0  0  0
   -0.5911    1.6671    0.4194 H   0  0  0  0  0  0  0  0  0  0  0  0
   -0.3669    3.0871   -0.7718 H   0  0  0  0  0  0  0  0  0  0  0  0
    0.9589    2.6925    0.3940 H   0  0  0  0  0  0  0  0  0  0  0  0
   -1.5214    0.9371    1.1991 C   0  0  0  0  0  3  0  0  0  0  0  0
   -0.7642    0.2879    2.3186 C   0  0  0  0  0  0  0  0  0  0  0  0
    0.7358   -0.6201    1.8412 S   0  0  0  0  0  0  0  0  0  0  0  0
    0.1074   -1.7417    0.5676 C   0  0  0  0  0  0  0  0  0  0  0  0
   -0.9740   -2.7010    1.0358 C   0  0  0  0  0  0  0  0  0  0  0  0
   -1.9361    0.2634    0.4527 H   0  0  0  0  0  0  0  0  0  0  0  0
   -2.2374    1.6923    1.5158 H   0  0  0  0  0  0  0  0  0  0  0  0
   -1.4139   -0.3870    2.8853 H   0  0  0  0  0  0  0  0  0  0  0  0
   -0.4036    1.0380    3.0247 H   0  0  0  0  0  0  0  0  0  0  0  0
   -0.2272   -1.1560   -0.2908 H   0  0  0  0  0  0  0  0  0  0  0  0
    0.9933   -2.2921    0.2459 H   0  0  0  0  0  0  0  0  0  0  0  0
   -1.8785   -2.1677    1.3338 H   0  0  0  0  0  0  0  0  0  0  0  0
   -1.2471   -3.3848    0.2291 H   0  0  0  0  0  0  0  0  0  0  0  0
   -0.6322   -3.2898    1.8877 H   0  0  0  0  0  0  0  0  0  0  0  0
  1  2  2  0
  1  5  1  0
  1  6  1  0
  2  3  2  0
  3  4  1  0
  3  7  1  0
  4  8  1  0
  4  9  1  0
  4 10  1  0
 11 12  1  0
 11 16  1  0
 11 17  1  0
 12 13  1  0
 12 18  1  0
 12 19  1  0
 13 14  1  0
 14 15  1  0
 14 20  1  0
 14 21  1  0
 15 22  1  0
 15 23  1  0
 15 24  1  0
M  RAD  1  11   2
M  END
>  <reaction>  (3) 
rmg_rxn_14147

>  <type>  (3) 
ts

>  <mol_properties>  (3) 
{"2": {"label": "*0", "atom_type": "Cd"}, "3": {"label": "*1", "atom_type": "Cs"}, "7": {"label": "*2", "atom_type": "H0"}, "10": {"label": "*3", "atom_type": "Cs"}, "11": {"label": "*4", "atom_type": "Cs"}}

$$$$
