
     RDKit          3D

 10  9  0  0  0  0  0  0  0  0999 V2000
    1.3254    0.1434   -1.4211 C   0  0  0  0  0  0  0  0  0  0  0  0
    0.5356   -0.0641   -0.3978 C   0  0  0  0  0  0  0  0  0  0  0  0
   -0.1859   -0.3121    0.6338 C   0  0  0  0  0  0  0  0  0  0  0  0
   -1.5116    0.2050    1.0755 C   0  0  0  0  0  0  0  0  0  0  0  0
    2.0763    0.9246   -1.3992 H   0  0  0  0  0  0  0  0  0  0  0  0
    1.2415   -0.4501   -2.3239 H   0  0  0  0  0  0  0  0  0  0  0  0
    0.2373   -1.0350    1.3313 H   0  0  0  0  0  0  0  0  0  0  0  0
   -2.2289   -0.6127    1.1733 H   0  0  0  0  0  0  0  0  0  0  0  0
   -1.9090    0.9312    0.3655 H   0  0  0  0  0  0  0  0  0  0  0  0
   -1.4280    0.6832    2.0536 H   0  0  0  0  0  0  0  0  0  0  0  0
  1  2  2  0
  1  5  1  0
  1  6  1  0
  2  3  2  0
  3  4  1  0
  3  7  1  0
  4  8  1  0
  4  9  1  0
  4 10  1  0
M  END
>  <reaction>  (1) 
rmg_rxn_13876

>  <type>  (1) 
r1h

>  <mol_properties>  (1) 
{"2": {"label": "donator", "atom_type": "Cd"}, "6": {"label": "d_hydrogen", "atom_type": "H0"}}

>  <electro_map>  (1) 
{"6": {"R": null, "A": null, "D": null}, "2": {"R": 1.0900001003545312, "A": null, "D": null}, "1": {"R": 1.2831380006007989, "A": 115.10502829151669, "D": null}, "0": {"R": 1.3091892993863827, "A": 147.18544649509397, "D": 179.6072279834911}, "3": {"R": 3.7796474875720962, "A": 14.864006275448057, "D": 184.33515100782907}, "4": {"R": 4.417622924545145, "A": 12.308937415863848, "D": 99.8174922851291}, "5": {"R": 1.8552053164143978, "A": 78.05535421022303, "D": 9.4150280326637}, "7": {"R": 4.92956833007703, "A": 89.29178521648817, "D": 357.23158673546953}, "8": {"R": 1.7715690281334369, "A": 61.35599512488116, "D": 54.81202417490397}, "9": {"R": 1.772708289171491, "A": 59.53163699780757, "D": 251.01231073465615}}

$$$$

     RDKit          3D

 10  9  0  0  0  0  0  0  0  0999 V2000
   -1.2272   -0.4438   -0.0437 C   0  0  0  0  0  3  0  0  0  0  0  0
    0.1853   -0.3743    0.3758 C   0  0  0  0  0  0  0  0  0  0  0  0
    0.9772    0.7488   -0.2918 C   0  0  0  0  0  0  0  0  0  0  0  0
   -1.9737   -1.1501    0.3005 H   0  0  0  0  0  0  0  0  0  0  0  0
    0.2350   -0.2562    1.4677 H   0  0  0  0  0  0  0  0  0  0  0  0
    0.6735   -1.3366    0.1643 H   0  0  0  0  0  0  0  0  0  0  0  0
    0.5353    1.7211   -0.0685 H   0  0  0  0  0  0  0  0  0  0  0  0
    0.9818    0.6305   -1.3761 H   0  0  0  0  0  0  0  0  0  0  0  0
    2.0100    0.7526    0.0588 H   0  0  0  0  0  0  0  0  0  0  0  0
   -1.5827    0.2506   -0.7961 H   0  0  0  0  0  0  0  0  0  0  0  0
  1  2  1  0
  1  4  1  0
  1 10  1  0
  2  3  1  0
  2  5  1  0
  2  6  1  0
  3  7  1  0
  3  8  1  0
  3  9  1  0
M  RAD  1   1   2
M  END
>  <reaction>  (2) 
rmg_rxn_13876

>  <type>  (2) 
r2h

>  <mol_properties>  (2) 
{"0": {"label": "acceptor", "atom_type": "Cs"}, "9": {"label": "a_hydrogen", "atom_type": "H0"}}

>  <electro_map>  (2) 
{"9": {"R": null, "A": null, "D": null}, "0": {"R": 1.0838124731728294, "A": null, "D": null}, "1": {"R": 1.4750973329919375, "A": 118.77071031569733, "D": null}, "2": {"R": 1.5277852154560339, "A": 88.57675290043133, "D": 182.21733312715403}, "3": {"R": 3.5587599011019844, "A": 26.517444004208215, "D": 0.22499496607764458}, "4": {"R": 2.653263881898999, "A": 37.17217962725253, "D": 33.07975893262779}, "5": {"R": 1.7488321085721117, "A": 70.89573510926137, "D": 297.43860595239454}, "6": {"R": 3.0696481854774467, "A": 55.24106384359998, "D": 95.77849740610326}, "7": {"R": 1.7602790312223884, "A": 55.09531141580522, "D": 179.76432330445186}, "8": {"R": 1.76944791416538, "A": 60.1460039363227, "D": 295.2780389179125}}

$$$$

     RDKit          3D

 19 17  0  0  0  0  0  0  0  0999 V2000
   -0.0779   -1.3798    1.4719 C   0  0  0  0  0  2  0  0  0  0  0  0
    1.3346   -1.3103    1.8914 C   0  0  0  0  0  0  0  0  0  0  0  0
    2.1265   -0.1872    1.2239 C   0  0  0  0  0  0  0  0  0  0  0  0
   -0.8244   -2.0861    1.8161 H   0  0  0  0  0  0  0  0  0  0  0  0
    1.3843   -1.1922    2.9834 H   0  0  0  0  0  0  0  0  0  0  0  0
    1.8227   -2.2726    1.6799 H   0  0  0  0  0  0  0  0  0  0  0  0
    1.6846    0.7851    1.4471 H   0  0  0  0  0  0  0  0  0  0  0  0
    2.1311   -0.3055    0.1395 H   0  0  0  0  0  0  0  0  0  0  0  0
    3.1592   -0.1833    1.5745 H   0  0  0  0  0  0  0  0  0  0  0  0
    0.4816    0.8153   -2.3691 C   0  0  0  0  0  0  0  0  0  0  0  0
   -0.3082    0.6078   -1.3458 C   0  0  0  0  0  0  0  0  0  0  0  0
   -1.0298    0.3598   -0.3142 C   0  0  0  0  0  0  0  0  0  0  0  0
   -2.3555    0.8770    0.1274 C   0  0  0  0  0  0  0  0  0  0  0  0
    1.2325    1.5965   -2.3472 H   0  0  0  0  0  0  0  0  0  0  0  0
    0.3976    0.2219   -3.2719 H   0  0  0  0  0  0  0  0  0  0  0  0
   -0.5422   -0.4729    0.4893 H   0  0  0  0  0  0  0  0  0  0  0  0
   -3.0728    0.0592    0.2253 H   0  0  0  0  0  0  0  0  0  0  0  0
   -2.7528    1.6031   -0.5825 H   0  0  0  0  0  0  0  0  0  0  0  0
   -2.2719    1.3552    1.1056 H   0  0  0  0  0  0  0  0  0  0  0  0
  1  2  1  0
  1  4  1  0
  2  3  1  0
  2  5  1  0
  2  6  1  0
  3  7  1  0
  3  8  1  0
  3  9  1  0
 10 11  2  0
 10 14  1  0
 10 15  1  0
 11 12  2  0
 12 13  1  0
 12 16  1  0
 13 17  1  0
 13 18  1  0
 13 19  1  0
M  RAD  1   1   3
M  END
>  <reaction>  (3) 
rmg_rxn_13876

>  <type>  (3) 
ts

>  <mol_properties>  (3) 
{"0": {"label": "*3", "atom_type": "Cs"}, "1": {"label": "*4", "atom_type": "Cs"}, "10": {"label": "*0", "atom_type": "Cdd"}, "11": {"label": "*1", "atom_type": "Cd"}, "15": {"label": "*2", "atom_type": "H0"}}

$$$$
