
     RDKit          3D

 10  9  0  0  0  0  0  0  0  0999 V2000
   -0.1242   -0.4791    1.8189 C   0  0  0  0  0  0  0  0  0  0  0  0
   -0.2313   -0.3252    0.5583 C   0  0  0  0  0  0  0  0  0  0  0  0
   -0.3797   -0.0303   -0.7178 C   0  0  0  0  0  0  0  0  0  0  0  0
    0.6442    0.7015   -1.5337 C   0  0  0  0  0  0  0  0  0  0  0  0
   -0.5342    0.3231    2.4131 H   0  0  0  0  0  0  0  0  0  0  0  0
    0.2957   -1.2818    2.4057 H   0  0  0  0  0  0  0  0  0  0  0  0
   -1.2893   -0.3496   -1.2171 H   0  0  0  0  0  0  0  0  0  0  0  0
    1.0007    0.0845   -2.3628 H   0  0  0  0  0  0  0  0  0  0  0  0
    1.5028    0.9841   -0.9252 H   0  0  0  0  0  0  0  0  0  0  0  0
    0.2175    1.6093   -1.9691 H   0  0  0  0  0  0  0  0  0  0  0  0
  1  2  2  0
  1  5  1  0
  1  6  1  0
  2  3  2  0
  3  4  1  0
  3  7  1  0
  4  8  1  0
  4  9  1  0
  4 10  1  0
M  END
>  <reaction>  (1) 
rmg_rxn_13987

>  <type>  (1) 
r1h

>  <mol_properties>  (1) 
{"0": {"label": "donator", "atom_type": "Cd"}, "4": {"label": "d_hydrogen", "atom_type": "H0"}}

>  <electro_map>  (1) 
{"4": {"R": null, "A": null, "D": null}, "0": {"R": 1.0793097800036595, "A": null, "D": null}, "1": {"R": 1.274488705608597, "A": 115.01840894378181, "D": null}, "2": {"R": 1.318077407636119, "A": 144.40125102430372, "D": 182.18974646020467}, "3": {"R": 1.4998257058925315, "A": 123.98196219987125, "D": 79.80645087915853}, "5": {"R": 4.4241971769350865, "A": 40.81143645281673, "D": 11.838846142539362}, "6": {"R": 4.0626983594151715, "A": 29.988446149365156, "D": 6.08393085119444}, "7": {"R": 2.5971476350932496, "A": 95.03471203214012, "D": 22.13814792133765}, "8": {"R": 1.7686377284135029, "A": 88.66814900640671, "D": 316.0399195871331}, "9": {"R": 1.769982354135432, "A": 59.60592115852717, "D": 292.7037297481336}}

$$$$

     RDKit          3D

 18 17  0  0  0  0  0  0  0  0999 V2000
    0.6989   -2.0417    0.8404 H   0  0  0  0  0  0  0  0  0  0  0  0
   -1.0672   -1.7159    1.9108 C   0  0  0  0  0  0  0  0  0  0  0  0
    0.1719   -1.1776    1.2636 C   0  0  0  0  0  0  0  0  0  0  0  0
   -0.1226   -0.3748    0.1918 O   0  0  0  0  0  0  0  0  0  0  0  0
    0.9916    0.2981   -0.3663 C   0  0  0  0  0  0  0  0  0  0  0  0
    0.5600    0.9804   -1.6457 C   0  0  0  0  0  0  0  0  0  0  0  0
   -0.4975    2.0548   -1.4311 C   0  0  0  0  0  0  0  0  0  0  0  0
   -1.6719   -2.2503    1.1767 H   0  0  0  0  0  0  0  0  0  0  0  0
   -0.8023   -2.4071    2.7118 H   0  0  0  0  0  0  0  0  0  0  0  0
   -1.6729   -0.9101    2.3344 H   0  0  0  0  0  0  0  0  0  0  0  0
    0.8989   -0.7281    1.9512 H   0  0  0  0  0  0  0  0  0  0  0  0
    1.3702    1.0329    0.3588 H   0  0  0  0  0  0  0  0  0  0  0  0
    1.7904   -0.4232   -0.5679 H   0  0  0  0  0  0  0  0  0  0  0  0
    1.4502    1.4139   -2.1098 H   0  0  0  0  0  0  0  0  0  0  0  0
    0.1860    0.2131   -2.3284 H   0  0  0  0  0  0  0  0  0  0  0  0
   -0.1284    2.8391   -0.7656 H   0  0  0  0  0  0  0  0  0  0  0  0
   -0.7781    2.5226   -2.3759 H   0  0  0  0  0  0  0  0  0  0  0  0
   -1.3957    1.6298   -0.9829 H   0  0  0  0  0  0  0  0  0  0  0  0
  1  3  1  0
  2  3  1  0
  2  8  1  0
  2  9  1  0
  2 10  1  0
  3  4  1  0
  3 11  1  0
  4  5  1  0
  5  6  1  0
  5 12  1  0
  5 13  1  0
  6  7  1  0
  6 14  1  0
  6 15  1  0
  7 16  1  0
  7 17  1  0
  7 18  1  0
M  END
>  <reaction>  (2) 
rmg_rxn_13987

>  <type>  (2) 
r2h

>  <mol_properties>  (2) 
{"0": {"label": "a_hydrogen", "atom_type": "H0"}, "2": {"label": "acceptor", "atom_type": "Cs"}}

>  <electro_map>  (2) 
{"0": {"R": null, "A": null, "D": null}, "2": {"R": 1.0970070436124608, "A": null, "D": null}, "3": {"R": 1.3711589134794329, "A": 105.23649621688524, "D": null}, "4": {"R": 1.4162639531713326, "A": 101.76334810228283, "D": 117.78107986486386}, "5": {"R": 1.5127925558337745, "A": 108.84993335159872, "D": 171.9658926997894}, "1": {"R": 4.750417389851929, "A": 37.68317081247854, "D": 0.24234104597557787}, "6": {"R": 5.07063995385454, "A": 17.44651081186023, "D": 125.2253497561622}, "7": {"R": 5.168520482051771, "A": 12.1838196884533, "D": 86.22762061700885}, "8": {"R": 1.7712314008706762, "A": 113.54608723024629, "D": 351.612300095146}, "9": {"R": 1.7723932090408787, "A": 59.96753263729065, "D": 51.004838158859314}, "10": {"R": 2.606540533836931, "A": 66.77291443478774, "D": 258.8793655142925}, "11": {"R": 2.420559630512275, "A": 109.85267658093066, "D": 156.53659575148734}, "12": {"R": 1.7764407368638435, "A": 78.04747687092136, "D": 249.43869674008178}, "13": {"R": 2.4224500404142955, "A": 71.16700869372723, "D": 161.1503714296224}, "14": {"R": 1.7572378618030349, "A": 70.24080545418487, "D": 247.1621174606615}, "15": {"R": 3.0719496072768573, "A": 54.9859109052923, "D": 100.83318044366048}, "16": {"R": 1.7650323734070161, "A": 54.567814253144114, "D": 104.59483575048245}, "17": {"R": 1.7660199289115466, "A": 59.98600201489133, "D": 66.1669000334769}}

$$$$

     RDKit          3D

 27 25  0  0  0  0  0  0  0  0999 V2000
    0.7589   -2.2501    0.7400 C   0  0  0  0  0  0  0  0  0  0  0  0
    0.6518   -2.0962   -0.5206 C   0  0  0  0  0  0  0  0  0  0  0  0
    0.5034   -1.8013   -1.7967 C   0  0  0  0  0  3  0  0  0  0  0  0
    1.5272   -1.0695   -2.6126 C   0  0  0  0  0  0  0  0  0  0  0  0
    0.2388   -1.2325    1.4938 H   0  0  0  0  0  0  0  0  0  0  0  0
    1.1788   -3.0528    1.3268 H   0  0  0  0  0  0  0  0  0  0  0  0
   -0.4062   -2.1206   -2.2959 H   0  0  0  0  0  0  0  0  0  0  0  0
    1.8837   -1.6865   -3.4417 H   0  0  0  0  0  0  0  0  0  0  0  0
    2.3859   -0.7869   -2.0041 H   0  0  0  0  0  0  0  0  0  0  0  0
    1.1005   -0.1617   -3.0480 H   0  0  0  0  0  0  0  0  0  0  0  0
   -1.6372   -0.7265    2.6525 C   0  0  0  0  0  0  0  0  0  0  0  0
   -0.3981   -0.1883    2.0053 C   0  0  0  0  0  0  0  0  0  0  0  0
   -0.6926    0.6145    0.9335 O   0  0  0  0  0  0  0  0  0  0  0  0
    0.4216    1.2874    0.3753 C   0  0  0  0  0  0  0  0  0  0  0  0
   -0.0100    1.9697   -0.9040 C   0  0  0  0  0  0  0  0  0  0  0  0
   -1.0675    3.0442   -0.6894 C   0  0  0  0  0  0  0  0  0  0  0  0
   -2.2419   -1.2609    1.9183 H   0  0  0  0  0  0  0  0  0  0  0  0
   -1.3723   -1.4178    3.4534 H   0  0  0  0  0  0  0  0  0  0  0  0
   -2.2429    0.0792    3.0760 H   0  0  0  0  0  0  0  0  0  0  0  0
    0.3289    0.2612    2.6929 H   0  0  0  0  0  0  0  0  0  0  0  0
    0.8002    2.0222    1.1004 H   0  0  0  0  0  0  0  0  0  0  0  0
    1.2204    0.5661    0.1737 H   0  0  0  0  0  0  0  0  0  0  0  0
    0.8802    2.4032   -1.3682 H   0  0  0  0  0  0  0  0  0  0  0  0
   -0.3840    1.2024   -1.5867 H   0  0  0  0  0  0  0  0  0  0  0  0
   -0.6984    3.8284   -0.0239 H   0  0  0  0  0  0  0  0  0  0  0  0
   -1.3481    3.5119   -1.6342 H   0  0  0  0  0  0  0  0  0  0  0  0
   -1.9657    2.6191   -0.2413 H   0  0  0  0  0  0  0  0  0  0  0  0
  1  2  3  0
  1  6  1  0
  2  3  1  0
  3  4  1  0
  3  7  1  0
  4  8  1  0
  4  9  1  0
  4 10  1  0
  5 12  1  0
 11 12  1  0
 11 17  1  0
 11 18  1  0
 11 19  1  0
 12 13  1  0
 12 20  1  0
 13 14  1  0
 14 15  1  0
 14 21  1  0
 14 22  1  0
 15 16  1  0
 15 23  1  0
 15 24  1  0
 16 25  1  0
 16 26  1  0
 16 27  1  0
M  RAD  1   3   2
M  END
>  <reaction>  (3) 
rmg_rxn_13987

>  <type>  (3) 
ts

>  <mol_properties>  (3) 
{"0": {"label": "*3", "atom_type": "Ct"}, "1": {"label": "*4", "atom_type": "Ct"}, "4": {"label": "*2", "atom_type": "H0"}, "11": {"label": "*1", "atom_type": "Cs"}, "12": {"label": "*0", "atom_type": "O2s"}}

$$$$
