
     RDKit          3D

 10  9  0  0  0  0  0  0  0  0999 V2000
    0.2954    1.8691    0.0746 C   0  0  0  0  0  0  0  0  0  0  0  0
    0.2434    0.5987    0.2115 C   0  0  0  0  0  0  0  0  0  0  0  0
    0.0794   -0.6906    0.4041 C   0  0  0  0  0  0  0  0  0  0  0  0
   -0.5130   -1.6316   -0.6012 C   0  0  0  0  0  0  0  0  0  0  0  0
   -0.5728    2.4209    0.4038 H   0  0  0  0  0  0  0  0  0  0  0  0
    1.0847    2.4940   -0.3165 H   0  0  0  0  0  0  0  0  0  0  0  0
    0.4032   -1.1066    1.3537 H   0  0  0  0  0  0  0  0  0  0  0  0
    0.2001   -2.4161   -0.8660 H   0  0  0  0  0  0  0  0  0  0  0  0
   -0.8020   -1.1076   -1.5115 H   0  0  0  0  0  0  0  0  0  0  0  0
   -1.3960   -2.1262   -0.1882 H   0  0  0  0  0  0  0  0  0  0  0  0
  1  2  2  0
  1  5  1  0
  1  6  1  0
  2  3  2  0
  3  4  1  0
  3  7  1  0
  4  8  1  0
  4  9  1  0
  4 10  1  0
M  END
>  <reaction>  (1) 
rmg_rxn_13997

>  <type>  (1) 
r1h

>  <mol_properties>  (1) 
{"0": {"label": "donator", "atom_type": "Cd"}, "4": {"label": "d_hydrogen", "atom_type": "H0"}}

>  <electro_map>  (1) 
{"4": {"R": null, "A": null, "D": null}, "0": {"R": 1.0800735997800208, "A": null, "D": null}, "1": {"R": 1.2788073819021082, "A": 116.24886391792376, "D": null}, "2": {"R": 1.3139286893919282, "A": 145.74966770949044, "D": 179.64021116421654}, "3": {"R": 1.4989811297979152, "A": 124.5400990207199, "D": 92.47997601463895}, "5": {"R": 4.433305934352869, "A": 39.67962945006916, "D": 13.037153861911298}, "6": {"R": 4.027254949084644, "A": 29.960362849996457, "D": 6.467131858567026}, "7": {"R": 2.5851415233129194, "A": 96.32151146579892, "D": 22.232909659560608}, "8": {"R": 1.7700243803812887, "A": 89.0332548210273, "D": 315.97194978235586}, "9": {"R": 1.7723826493557493, "A": 59.50950647519806, "D": 292.67518550909716}}

$$$$

     RDKit          3D

  9  8  0  0  0  0  0  0  0  0999 V2000
    0.1539    1.0720   -1.1043 C   0  0  0  0  0  0  0  0  0  0  0  0
   -0.6132   -0.1407   -0.7019 C   0  0  0  0  0  0  0  0  0  0  0  0
   -0.2346   -0.7843    0.5833 N   0  0  0  0  0  0  0  0  0  0  0  0
    0.5915   -0.1992    1.2121 O   0  0  0  0  0  0  0  0  0  0  0  0
   -0.2249    1.5657   -1.9945 H   0  0  0  0  0  0  0  0  0  0  0  0
    0.4195    1.7529   -0.3017 H   0  0  0  0  0  0  0  0  0  0  0  0
   -1.6894    0.0454   -0.5849 H   0  0  0  0  0  0  0  0  0  0  0  0
   -0.5378   -0.9497   -1.4371 H   0  0  0  0  0  0  0  0  0  0  0  0
    1.1082    0.6683   -1.4287 H   0  0  0  0  0  0  0  0  0  0  0  0
  1  2  1  0
  1  5  1  0
  1  6  1  0
  1  9  1  0
  2  3  1  0
  2  7  1  0
  2  8  1  0
  3  4  2  0
M  END
>  <reaction>  (2) 
rmg_rxn_13997

>  <type>  (2) 
r2h

>  <mol_properties>  (2) 
{"0": {"label": "acceptor", "atom_type": "Cs"}, "8": {"label": "a_hydrogen", "atom_type": "H0"}}

>  <electro_map>  (2) 
{"8": {"R": null, "A": null, "D": null}, "0": {"R": 1.0857892381190621, "A": null, "D": null}, "1": {"R": 1.4903636391349155, "A": 103.32276797523323, "D": null}, "2": {"R": 1.4863877152917702, "A": 105.38952702699362, "D": 242.90569160722893}, "3": {"R": 1.1917208396940315, "A": 114.8472254502595, "D": 5.14816870240073}, "4": {"R": 3.7501866612072106, "A": 68.22132985856302, "D": 359.8244164062545}, "5": {"R": 1.8209230111368775, "A": 34.56168760167534, "D": 155.87535813982444}, "6": {"R": 2.7282300511570012, "A": 64.2527817245472, "D": 320.6756797440212}, "7": {"R": 1.74432160227776, "A": 84.11419823312112, "D": 68.81604997666489}}

$$$$

     RDKit          3D

 18 16  0  0  0  0  0  0  0  0999 V2000
   -0.4429    1.7060   -0.1284 C   0  0  0  0  0  3  0  0  0  0  0  0
   -1.2100    0.4932    0.2740 C   0  0  0  0  0  0  0  0  0  0  0  0
   -0.8314   -0.1504    1.5592 N   0  0  0  0  0  0  0  0  0  0  0  0
   -0.0053    0.4347    2.1880 O   0  0  0  0  0  0  0  0  0  0  0  0
   -0.8218    2.1996   -1.0186 H   0  0  0  0  0  0  0  0  0  0  0  0
   -0.1773    2.3869    0.6742 H   0  0  0  0  0  0  0  0  0  0  0  0
   -2.2862    0.6793    0.3910 H   0  0  0  0  0  0  0  0  0  0  0  0
   -1.1347   -0.3158   -0.4612 H   0  0  0  0  0  0  0  0  0  0  0  0
    1.8140    0.5303   -0.9364 C   0  0  0  0  0  0  0  0  0  0  0  0
    1.7621   -0.7401   -0.7995 C   0  0  0  0  0  0  0  0  0  0  0  0
    1.5980   -2.0294   -0.6069 C   0  0  0  0  0  0  0  0  0  0  0  0
    1.0057   -2.9703   -1.6122 C   0  0  0  0  0  0  0  0  0  0  0  0
    0.7756    1.1904   -0.5427 H   0  0  0  0  0  0  0  0  0  0  0  0
    2.6034    1.1553   -1.3275 H   0  0  0  0  0  0  0  0  0  0  0  0
    1.9218   -2.4454    0.3427 H   0  0  0  0  0  0  0  0  0  0  0  0
    1.7187   -3.7549   -1.8770 H   0  0  0  0  0  0  0  0  0  0  0  0
    0.7166   -2.4464   -2.5225 H   0  0  0  0  0  0  0  0  0  0  0  0
    0.1226   -3.4650   -1.1992 H   0  0  0  0  0  0  0  0  0  0  0  0
  1  2  1  0
  1  5  1  0
  1  6  1  0
  2  3  1  0
  2  7  1  0
  2  8  1  0
  3  4  2  0
  9 10  2  0
  9 13  1  0
  9 14  1  0
 10 11  2  0
 11 12  1  0
 11 15  1  0
 12 16  1  0
 12 17  1  0
 12 18  1  0
M  RAD  1   1   2
M  END
>  <reaction>  (3) 
rmg_rxn_13997

>  <type>  (3) 
ts

>  <mol_properties>  (3) 
{"0": {"label": "*3", "atom_type": "Cs"}, "1": {"label": "*4", "atom_type": "Cs"}, "8": {"label": "*1", "atom_type": "Cd"}, "9": {"label": "*0", "atom_type": "Cdd"}, "12": {"label": "*2", "atom_type": "H0"}}

$$$$
