
     RDKit          3D

 10  9  0  0  0  0  0  0  0  0999 V2000
    0.0162   -1.4625   -1.3222 C   0  0  0  0  0  0  0  0  0  0  0  0
    0.0964   -0.5298   -0.3925 C   0  0  0  0  0  0  0  0  0  0  0  0
    0.2917    0.3042    0.5511 C   0  0  0  0  0  0  0  0  0  0  0  0
   -0.3764    1.5337    1.0493 C   0  0  0  0  0  0  0  0  0  0  0  0
    0.4924   -1.3315   -2.2867 H   0  0  0  0  0  0  0  0  0  0  0  0
   -0.5716   -2.3595   -1.1667 H   0  0  0  0  0  0  0  0  0  0  0  0
    1.1765    0.0250    1.1231 H   0  0  0  0  0  0  0  0  0  0  0  0
   -0.6871    1.4089    2.0889 H   0  0  0  0  0  0  0  0  0  0  0  0
   -1.2578    1.7776    0.4542 H   0  0  0  0  0  0  0  0  0  0  0  0
    0.3090    2.3830    1.0147 H   0  0  0  0  0  0  0  0  0  0  0  0
  1  2  2  0
  1  5  1  0
  1  6  1  0
  2  3  2  0
  3  4  1  0
  3  7  1  0
  4  8  1  0
  4  9  1  0
  4 10  1  0
M  END
>  <reaction>  (1) 
rmg_rxn_13898

>  <type>  (1) 
r1h

>  <mol_properties>  (1) 
{"2": {"label": "donator", "atom_type": "Cd"}, "6": {"label": "d_hydrogen", "atom_type": "H0"}}

>  <electro_map>  (1) 
{"6": {"R": null, "A": null, "D": null}, "2": {"R": 1.0899999909882152, "A": null, "D": null}, "1": {"R": 1.274332211960853, "A": 110.19936508132517, "D": null}, "0": {"R": 1.3193870777352548, "A": 141.78753939420332, "D": 179.8497092135065}, "3": {"R": 3.8412409090678734, "A": 11.410798525252545, "D": 181.10205876487257}, "4": {"R": 4.4824965526867535, "A": 12.083124224622512, "D": 98.30952537810283}, "5": {"R": 1.855557409477196, "A": 78.098317159267, "D": 8.595247066624019}, "7": {"R": 4.981259702819028, "A": 89.35200826593305, "D": 356.6670044227411}, "8": {"R": 1.7702918028736894, "A": 63.994057726960584, "D": 56.7413857332649}, "9": {"R": 1.7707281044006602, "A": 59.581336236878435, "D": 253.27785392183458}}

$$$$

     RDKit          3D

  9  8  0  0  0  0  0  0  0  0999 V2000
   -0.6051   -0.4887    1.0405 C   0  0  0  0  0  0  0  0  0  0  0  0
   -0.0007    0.5157    0.0997 C   0  0  0  0  0  0  0  0  0  0  0  0
    0.6246    0.0018   -1.0141 O   0  0  0  0  0  0  0  0  0  0  0  0
    0.1595   -1.1637    1.4354 H   0  0  0  0  0  0  0  0  0  0  0  0
   -1.0895    0.0164    1.8774 H   0  0  0  0  0  0  0  0  0  0  0  0
   -1.3606   -1.0888    0.5261 H   0  0  0  0  0  0  0  0  0  0  0  0
    0.6501    1.2567    0.5608 H   0  0  0  0  0  0  0  0  0  0  0  0
    0.0016   -0.5572   -1.4913 H   0  0  0  0  0  0  0  0  0  0  0  0
   -0.8582    1.0573   -0.2959 H   0  0  0  0  0  0  0  0  0  0  0  0
  1  2  1  0
  1  4  1  0
  1  5  1  0
  1  6  1  0
  2  3  1  0
  2  7  1  0
  2  9  1  0
  3  8  1  0
M  END
>  <reaction>  (2) 
rmg_rxn_13898

>  <type>  (2) 
r2h

>  <mol_properties>  (2) 
{"1": {"label": "acceptor", "atom_type": "Cs"}, "8": {"label": "a_hydrogen", "atom_type": "H0"}}

>  <electro_map>  (2) 
{"8": {"R": null, "A": null, "D": null}, "1": {"R": 1.0886571844154813, "A": null, "D": null}, "2": {"R": 1.3768265469857193, "A": 104.44473748719022, "D": null}, "0": {"R": 2.444180064883763, "A": 54.43919812145282, "D": 38.358501917080865}, "7": {"R": 2.604304337995063, "A": 21.705218162614987, "D": 128.63088469326738}, "3": {"R": 2.993024504801177, "A": 21.099183419788947, "D": 76.65693329499624}, "4": {"R": 1.7742659192552945, "A": 94.10938547871783, "D": 353.56379631799405}, "5": {"R": 1.7666933996349221, "A": 60.09036132767061, "D": 46.64714272438767}, "6": {"R": 3.089554841897737, "A": 54.30999689249132, "D": 290.0435981665242}}

$$$$

     RDKit          3D

 18 16  0  0  0  0  0  0  0  0999 V2000
    0.8440   -0.9940    1.9242 C   0  0  0  0  0  0  0  0  0  0  0  0
    1.4484    0.0103    0.9835 C   0  0  0  0  0  3  0  0  0  0  0  0
    2.0737   -0.5035   -0.1304 O   0  0  0  0  0  0  0  0  0  0  0  0
    1.6086   -1.6690    2.3191 H   0  0  0  0  0  0  0  0  0  0  0  0
    0.3596   -0.4889    2.7611 H   0  0  0  0  0  0  0  0  0  0  0  0
    0.0885   -1.5942    1.4098 H   0  0  0  0  0  0  0  0  0  0  0  0
    2.0992    0.7513    1.4445 H   0  0  0  0  0  0  0  0  0  0  0  0
    1.4507   -1.0625   -0.6075 H   0  0  0  0  0  0  0  0  0  0  0  0
   -0.9803   -0.7413   -2.0853 C   0  0  0  0  0  0  0  0  0  0  0  0
   -0.9001    0.1914   -1.1556 C   0  0  0  0  0  0  0  0  0  0  0  0
   -0.7049    1.0254   -0.2120 C   0  0  0  0  0  0  0  0  0  0  0  0
   -1.3730    2.2549    0.2862 C   0  0  0  0  0  0  0  0  0  0  0  0
   -0.5041   -0.6103   -3.0498 H   0  0  0  0  0  0  0  0  0  0  0  0
   -1.5682   -1.6382   -1.9298 H   0  0  0  0  0  0  0  0  0  0  0  0
    0.3866    0.6810    0.4936 H   0  0  0  0  0  0  0  0  0  0  0  0
   -1.6837    2.1301    1.3259 H   0  0  0  0  0  0  0  0  0  0  0  0
   -2.2543    2.4988   -0.3089 H   0  0  0  0  0  0  0  0  0  0  0  0
   -0.6875    3.1042    0.2517 H   0  0  0  0  0  0  0  0  0  0  0  0
  1  2  1  0
  1  4  1  0
  1  5  1  0
  1  6  1  0
  2  3  1  0
  2  7  1  0
  3  8  1  0
  9 10  2  0
  9 13  1  0
  9 14  1  0
 10 11  2  0
 11 12  1  0
 11 15  1  0
 12 16  1  0
 12 17  1  0
 12 18  1  0
M  RAD  1   2   2
M  END
>  <reaction>  (3) 
rmg_rxn_13898

>  <type>  (3) 
ts

>  <mol_properties>  (3) 
{"1": {"label": "*3", "atom_type": "Cs"}, "2": {"label": "*4", "atom_type": "O2s"}, "9": {"label": "*0", "atom_type": "Cdd"}, "10": {"label": "*1", "atom_type": "Cd"}, "14": {"label": "*2", "atom_type": "H0"}}

$$$$
