
     RDKit          3D

 10  9  0  0  0  0  0  0  0  0999 V2000
   -0.6893   -1.7450   -0.3175 C   0  0  0  0  0  0  0  0  0  0  0  0
   -0.2757   -0.5965    0.1245 C   0  0  0  0  0  0  0  0  0  0  0  0
    0.1390    0.5656    0.5612 C   0  0  0  0  0  0  0  0  0  0  0  0
    0.7090    1.6180   -0.2900 C   0  0  0  0  0  0  0  0  0  0  0  0
   -0.0111   -2.5858   -0.4173 H   0  0  0  0  0  0  0  0  0  0  0  0
   -1.7255   -1.9021   -0.5963 H   0  0  0  0  0  0  0  0  0  0  0  0
    0.1080    0.7412    1.6329 H   0  0  0  0  0  0  0  0  0  0  0  0
    1.7880    1.4834   -0.2995 H   0  0  0  0  0  0  0  0  0  0  0  0
    0.5834    2.6277    0.0937 H   0  0  0  0  0  0  0  0  0  0  0  0
    0.4486    1.5403   -1.3429 H   0  0  0  0  0  0  0  0  0  0  0  0
  1  2  2  0
  1  5  1  0
  1  6  1  0
  2  3  2  0
  3  4  1  0
  3  7  1  0
  4  8  1  0
  4  9  1  0
  4 10  1  0
M  END
>  <reaction>  (1) 
rmg_rxn_14149

>  <type>  (1) 
r1h

>  <mol_properties>  (1) 
{"3": {"label": "donator", "atom_type": "Cs"}, "7": {"label": "d_hydrogen", "atom_type": "H0"}}

>  <electro_map>  (1) 
{"7": {"R": null, "A": null, "D": null}, "3": {"R": 1.087393025365608, "A": null, "D": null}, "2": {"R": 1.4686076318446175, "A": 107.5470122145088, "D": null}, "1": {"R": 1.308889327188608, "A": 120.41903369160472, "D": 107.17366763050683}, "0": {"R": 1.0, "A": 90.0, "D": 180.0}, "4": {"R": 1.298253670910384, "A": 90.0, "D": 180.0}, "5": {"R": 1.084890450866992, "A": 121.28400454584462, "D": 87.33028380121488}, "6": {"R": 1.8544382546503588, "A": 31.256167549119546, "D": 179.71022333737196}, "8": {"R": 3.9138992488721867, "A": 76.16791412286192, "D": 345.31425838792205}, "9": {"R": 2.4806668420224467, "A": 104.47581077761771, "D": 103.71027047191356}}

$$$$

     RDKit          3D

  9  8  0  0  0  0  0  0  0  0999 V2000
   -0.8808    1.4126   -0.1936 C   0  0  0  0  0  0  0  0  0  0  0  0
   -0.8247   -0.0814   -0.2050 C   0  0  0  0  0  0  0  0  0  0  0  0
    0.6163   -0.4700   -0.3490 N   0  0  0  0  0  0  0  0  0  0  0  0
    1.1092   -0.8697    0.6616 O   0  0  0  0  0  0  0  0  0  0  0  0
   -0.4747    1.8804    0.6999 H   0  0  0  0  0  0  0  0  0  0  0  0
   -0.5685    1.9019   -1.1123 H   0  0  0  0  0  0  0  0  0  0  0  0
   -1.2246   -0.5190    0.7115 H   0  0  0  0  0  0  0  0  0  0  0  0
   -1.3356   -0.4866   -1.0809 H   0  0  0  0  0  0  0  0  0  0  0  0
   -1.9424    1.6394   -0.1388 H   0  0  0  0  0  0  0  0  0  0  0  0
  1  2  1  0
  1  5  1  0
  1  6  1  0
  1  9  1  0
  2  3  1  0
  2  7  1  0
  2  8  1  0
  3  4  2  0
M  END
>  <reaction>  (2) 
rmg_rxn_14149

>  <type>  (2) 
r2h

>  <mol_properties>  (2) 
{"0": {"label": "acceptor", "atom_type": "Cs"}, "8": {"label": "a_hydrogen", "atom_type": "H0"}}

>  <electro_map>  (2) 
{"8": {"R": null, "A": null, "D": null}, "0": {"R": 1.086972957362432, "A": null, "D": null}, "1": {"R": 1.495060337214191, "A": 104.21225526088912, "D": null}, "2": {"R": 1.4994450178251661, "A": 138.03758880243026, "D": 356.0494879844428}, "3": {"R": 1.1933657681907308, "A": 113.73150059471124, "D": 104.8855584450669}, "4": {"R": 3.173879356557667, "A": 60.913627597974155, "D": 309.5810088551893}, "5": {"R": 1.8147568956562836, "A": 91.3753519626535, "D": 349.6181843328883}, "6": {"R": 3.1011785850928004, "A": 54.1563228325651, "D": 47.28982457974618}, "7": {"R": 1.7960751951104632, "A": 53.995211865818895, "D": 179.18342003199876}}

$$$$

     RDKit          3D

 18 16  0  0  0  0  0  0  0  0999 V2000
    1.1325    1.2351   -0.2911 C   0  0  0  0  0  3  0  0  0  0  0  0
    1.1885   -0.2588   -0.3025 C   0  0  0  0  0  0  0  0  0  0  0  0
    2.6295   -0.6475   -0.4465 N   0  0  0  0  0  0  0  0  0  0  0  0
    3.1225   -1.0472    0.5641 O   0  0  0  0  0  0  0  0  0  0  0  0
    1.5385    1.7029    0.6024 H   0  0  0  0  0  0  0  0  0  0  0  0
    1.4448    1.7244   -1.2098 H   0  0  0  0  0  0  0  0  0  0  0  0
    0.7886   -0.6965    0.6140 H   0  0  0  0  0  0  0  0  0  0  0  0
    0.6777   -0.6641   -1.1784 H   0  0  0  0  0  0  0  0  0  0  0  0
   -2.9207   -1.6745   -0.2364 C   0  0  0  0  0  0  0  0  0  0  0  0
   -2.5071   -0.5260    0.2056 C   0  0  0  0  0  0  0  0  0  0  0  0
   -2.0923    0.6361    0.6423 C   0  0  0  0  0  0  0  0  0  0  0  0
   -1.5224    1.6885   -0.2088 C   0  0  0  0  0  0  0  0  0  0  0  0
   -2.2424   -2.5154   -0.3362 H   0  0  0  0  0  0  0  0  0  0  0  0
   -3.9569   -1.8316   -0.5152 H   0  0  0  0  0  0  0  0  0  0  0  0
   -2.1234    0.8117    1.7140 H   0  0  0  0  0  0  0  0  0  0  0  0
   -0.2422    1.5288   -0.2202 H   0  0  0  0  0  0  0  0  0  0  0  0
   -1.6480    2.6981    0.1749 H   0  0  0  0  0  0  0  0  0  0  0  0
   -1.7828    1.6107   -1.2617 H   0  0  0  0  0  0  0  0  0  0  0  0
  1  2  1  0
  1  5  1  0
  1  6  1  0
  2  3  1  0
  2  7  1  0
  2  8  1  0
  3  4  2  0
  9 10  2  0
  9 13  1  0
  9 14  1  0
 10 11  2  0
 11 12  1  0
 11 15  1  0
 12 16  1  0
 12 17  1  0
 12 18  1  0
M  RAD  1   1   2
M  END
>  <reaction>  (3) 
rmg_rxn_14149

>  <type>  (3) 
ts

>  <mol_properties>  (3) 
{"0": {"label": "*3", "atom_type": "Cs"}, "1": {"label": "*4", "atom_type": "Cs"}, "10": {"label": "*0", "atom_type": "Cd"}, "11": {"label": "*1", "atom_type": "Cs"}, "15": {"label": "*2", "atom_type": "H0"}}

$$$$
