
     RDKit          3D

 10  9  0  0  0  0  0  0  0  0999 V2000
   -1.5763   -1.0479    0.0455 C   0  0  0  0  0  0  0  0  0  0  0  0
   -0.4936   -0.4143   -0.2161 C   0  0  0  0  0  0  0  0  0  0  0  0
    0.5618    0.3176   -0.4838 C   0  0  0  0  0  0  0  0  0  0  0  0
    1.3947    1.0153    0.5505 C   0  0  0  0  0  0  0  0  0  0  0  0
   -2.4937   -0.4764    0.0532 H   0  0  0  0  0  0  0  0  0  0  0  0
   -1.7082   -2.0977    0.2667 H   0  0  0  0  0  0  0  0  0  0  0  0
    0.8663    0.4141   -1.5220 H   0  0  0  0  0  0  0  0  0  0  0  0
    0.9985    0.8507    1.5516 H   0  0  0  0  0  0  0  0  0  0  0  0
    1.4220    2.0915    0.3613 H   0  0  0  0  0  0  0  0  0  0  0  0
    2.4269    0.6574    0.5241 H   0  0  0  0  0  0  0  0  0  0  0  0
  1  2  2  0
  1  5  1  0
  1  6  1  0
  2  3  2  0
  3  4  1  0
  3  7  1  0
  4  8  1  0
  4  9  1  0
  4 10  1  0
M  END
>  <reaction>  (1) 
rmg_rxn_14032

>  <type>  (1) 
r1h

>  <mol_properties>  (1) 
{"0": {"label": "donator", "atom_type": "Cd"}, "4": {"label": "d_hydrogen", "atom_type": "H0"}}

>  <electro_map>  (1) 
{"4": {"R": null, "A": null, "D": null}, "0": {"R": 1.0809374627683777, "A": null, "D": null}, "1": {"R": 1.2814291852003956, "A": 117.20140222884247, "D": null}, "2": {"R": 1.3120135359472902, "A": 147.2719914264555, "D": 180.73159949564726}, "3": {"R": 1.5000172455114191, "A": 124.43013871553526, "D": 84.93523273125068}, "5": {"R": 4.404479841335353, "A": 40.15592756227021, "D": 14.159249814293771}, "6": {"R": 4.017111655208882, "A": 30.144976102878687, "D": 7.202776506113692}, "7": {"R": 3.107279469159942, "A": 71.01426002050682, "D": 357.2917909978897}, "8": {"R": 1.7708393844800296, "A": 56.20202626700559, "D": 205.41661058023007}, "9": {"R": 1.7587290768981798, "A": 60.20268137673842, "D": 292.4303033676171}}

$$$$

     RDKit          3D

  9  8  0  0  0  0  0  0  0  0999 V2000
   -0.9214   -0.8911    0.2132 C   0  0  0  0  0  0  0  0  0  0  0  0
    0.2330   -0.2993    0.0175 C   0  0  0  0  0  0  0  0  0  0  0  0
    0.6272    1.1059   -0.2131 C   0  0  0  0  0  0  0  0  0  0  0  0
   -0.9964   -1.9620    0.3657 H   0  0  0  0  0  0  0  0  0  0  0  0
   -1.8524   -0.3264    0.2292 H   0  0  0  0  0  0  0  0  0  0  0  0
    1.1458    1.2086   -1.1689 H   0  0  0  0  0  0  0  0  0  0  0  0
   -0.2462    1.7652   -0.2176 H   0  0  0  0  0  0  0  0  0  0  0  0
    1.3155    1.4454    0.5643 H   0  0  0  0  0  0  0  0  0  0  0  0
    1.1129   -0.9425    0.0178 H   0  0  0  0  0  0  0  0  0  0  0  0
  1  2  2  3
  1  4  1  0
  1  5  1  0
  2  3  1  0
  2  9  1  0
  3  6  1  0
  3  7  1  0
  3  8  1  0
M  END
>  <reaction>  (2) 
rmg_rxn_14032

>  <type>  (2) 
r2h

>  <mol_properties>  (2) 
{"1": {"label": "acceptor", "atom_type": "Cd"}, "8": {"label": "a_hydrogen", "atom_type": "H0"}}

>  <electro_map>  (2) 
{"8": {"R": null, "A": null, "D": null}, "1": {"R": 1.0899999909882152, "A": null, "D": null}, "0": {"R": 1.311914585892035, "A": 116.36612813373199, "D": null}, "2": {"R": 2.562825996317804, "A": 53.30191922750276, "D": 359.9883325399329}, "3": {"R": 3.5189906307354812, "A": 9.767143347133187, "D": 0.06621285276398693}, "4": {"R": 1.8511337234484204, "A": 55.31329859504454, "D": 0.039319727768047694}, "5": {"R": 3.646972100567721, "A": 91.14456533718428, "D": 13.92794393612254}, "6": {"R": 1.7755323966223218, "A": 44.109307590068966, "D": 208.0124366004056}, "7": {"R": 1.7755323966223218, "A": 59.32923387704526, "D": 100.80615277563943}}

$$$$

     RDKit          3D

 18 16  0  0  0  0  0  0  0  0999 V2000
   -3.2135   -0.4597    0.2333 C   0  0  0  0  0  0  0  0  0  0  0  0
   -2.0591    0.1321    0.0377 C   0  0  0  0  0  3  0  0  0  0  0  0
   -1.6649    1.5373   -0.1929 C   0  0  0  0  0  0  0  0  0  0  0  0
   -3.2885   -1.5306    0.3859 H   0  0  0  0  0  0  0  0  0  0  0  0
   -4.1445    0.1050    0.2494 H   0  0  0  0  0  0  0  0  0  0  0  0
   -1.1463    1.6400   -1.1487 H   0  0  0  0  0  0  0  0  0  0  0  0
   -2.5383    2.1966   -0.1974 H   0  0  0  0  0  0  0  0  0  0  0  0
   -0.9766    1.8768    0.5844 H   0  0  0  0  0  0  0  0  0  0  0  0
    0.1495   -1.3657    0.0290 C   0  0  0  0  0  0  0  0  0  0  0  0
    1.2321   -0.7321   -0.2326 C   0  0  0  0  0  0  0  0  0  0  0  0
    2.2876   -0.0002   -0.5003 C   0  0  0  0  0  0  0  0  0  0  0  0
    3.1204    0.6975    0.5340 C   0  0  0  0  0  0  0  0  0  0  0  0
   -0.9296   -0.6935    0.0381 H   0  0  0  0  0  0  0  0  0  0  0  0
    0.0175   -2.4156    0.2501 H   0  0  0  0  0  0  0  0  0  0  0  0
    2.5921    0.0963   -1.5385 H   0  0  0  0  0  0  0  0  0  0  0  0
    2.7243    0.5328    1.5351 H   0  0  0  0  0  0  0  0  0  0  0  0
    3.1478    1.7737    0.3448 H   0  0  0  0  0  0  0  0  0  0  0  0
    4.1527    0.3396    0.5075 H   0  0  0  0  0  0  0  0  0  0  0  0
  1  2  2  3
  1  4  1  0
  1  5  1  0
  2  3  1  0
  3  6  1  0
  3  7  1  0
  3  8  1  0
  9 10  2  0
  9 13  1  0
  9 14  1  0
 10 11  2  0
 11 12  1  0
 11 15  1  0
 12 16  1  0
 12 17  1  0
 12 18  1  0
M  RAD  1   2   2
M  END
>  <reaction>  (3) 
rmg_rxn_14032

>  <type>  (3) 
ts

>  <mol_properties>  (3) 
{"0": {"label": "*4", "atom_type": "Cd"}, "1": {"label": "*3", "atom_type": "Cd"}, "8": {"label": "*1", "atom_type": "Cd"}, "9": {"label": "*0", "atom_type": "Cdd"}, "12": {"label": "*2", "atom_type": "H0"}}

$$$$
