
     RDKit          3D

 10  9  0  0  0  0  0  0  0  0999 V2000
    0.1817    1.2376    1.4151 C   0  0  0  0  0  0  0  0  0  0  0  0
    0.1120    0.2324    0.6354 C   0  0  0  0  0  0  0  0  0  0  0  0
   -0.1028   -0.7817   -0.1789 C   0  0  0  0  0  0  0  0  0  0  0  0
   -0.1331   -0.6729   -1.6732 C   0  0  0  0  0  0  0  0  0  0  0  0
   -0.7721    1.6980    1.6228 H   0  0  0  0  0  0  0  0  0  0  0  0
    1.0228    1.7205    1.8886 H   0  0  0  0  0  0  0  0  0  0  0  0
   -0.2593   -1.7639    0.2576 H   0  0  0  0  0  0  0  0  0  0  0  0
    0.6253   -1.3151   -2.1285 H   0  0  0  0  0  0  0  0  0  0  0  0
    0.0424    0.3523   -1.9957 H   0  0  0  0  0  0  0  0  0  0  0  0
   -1.1040   -0.9931   -2.0602 H   0  0  0  0  0  0  0  0  0  0  0  0
  1  2  2  0
  1  5  1  0
  1  6  1  0
  2  3  2  0
  3  4  1  0
  3  7  1  0
  4  8  1  0
  4  9  1  0
  4 10  1  0
M  END
>  <reaction>  (1) 
rmg_rxn_14044

>  <type>  (1) 
r1h

>  <mol_properties>  (1) 
{"0": {"label": "donator", "atom_type": "Cd"}, "4": {"label": "d_hydrogen", "atom_type": "H0"}}

>  <electro_map>  (1) 
{"4": {"R": null, "A": null, "D": null}, "0": {"R": 1.0792738832999433, "A": null, "D": null}, "1": {"R": 1.273977715050316, "A": 113.95364044675125, "D": null}, "2": {"R": 1.3182718431589975, "A": 143.7392451198121, "D": 180.3376291543108}, "3": {"R": 1.4985191665049908, "A": 124.29287214011701, "D": 86.24520792739074}, "5": {"R": 4.444192057966859, "A": 40.06451691914498, "D": 11.765886874475541}, "6": {"R": 4.055269585431092, "A": 29.85311208043037, "D": 5.862024863534181}, "7": {"R": 2.584086236654419, "A": 96.54108462338779, "D": 21.95318209554864}, "8": {"R": 1.7713324871791034, "A": 88.9487876070908, "D": 317.54277719433253}, "9": {"R": 1.7687857364778197, "A": 59.63872171197103, "D": 292.4630854221157}}

$$$$

     RDKit          3D

 12 11  0  0  0  0  0  0  0  0999 V2000
   -0.2824   -1.6361    0.2620 C   0  0  0  0  0  0  0  0  0  0  0  0
   -0.4739   -0.1909   -0.7974 S   0  0  0  0  0  0  0  0  0  0  0  0
    0.6518    0.9450   -0.0591 C   0  0  0  0  0  0  0  0  0  0  0  0
    0.5984    1.1807    1.4297 C   0  0  0  0  0  0  0  0  0  0  0  0
   -0.7211   -1.4769    1.2458 H   0  0  0  0  0  0  0  0  0  0  0  0
    0.7717   -1.8954    0.3562 H   0  0  0  0  0  0  0  0  0  0  0  0
   -0.8064   -2.4540   -0.2299 H   0  0  0  0  0  0  0  0  0  0  0  0
    0.6262    1.8593   -0.6508 H   0  0  0  0  0  0  0  0  0  0  0  0
    1.3572    1.9108    1.7173 H   0  0  0  0  0  0  0  0  0  0  0  0
    0.7965    0.2638    1.9867 H   0  0  0  0  0  0  0  0  0  0  0  0
   -0.3777    1.5632    1.7399 H   0  0  0  0  0  0  0  0  0  0  0  0
    1.6443    0.5445   -0.2627 H   0  0  0  0  0  0  0  0  0  0  0  0
  1  2  1  0
  1  5  1  0
  1  6  1  0
  1  7  1  0
  2  3  1  0
  3  4  1  0
  3  8  1  0
  3 12  1  0
  4  9  1  0
  4 10  1  0
  4 11  1  0
M  END
>  <reaction>  (2) 
rmg_rxn_14044

>  <type>  (2) 
r2h

>  <mol_properties>  (2) 
{"2": {"label": "acceptor", "atom_type": "Cs"}, "11": {"label": "a_hydrogen", "atom_type": "H0"}}

>  <electro_map>  (2) 
{"11": {"R": null, "A": null, "D": null}, "2": {"R": 1.0893961216186097, "A": null, "D": null}, "1": {"R": 1.7614048849516937, "A": 105.47589624918753, "D": null}, "0": {"R": 1.8021123439092777, "A": 91.25223417259852, "D": 246.25226863059794}, "3": {"R": 3.1739544746484807, "A": 62.22695984534102, "D": 20.907814997162298}, "4": {"R": 2.9728362220692666, "A": 20.064150922920838, "D": 130.14654670352297}, "5": {"R": 1.787515696209904, "A": 82.4959119922537, "D": 34.05483210028027}, "6": {"R": 1.7736803468304383, "A": 59.67687045287412, "D": 222.49770460464134}, "7": {"R": 4.564459393047686, "A": 56.879119361351584, "D": 74.83482323389464}, "8": {"R": 2.4789078735000003, "A": 91.3809229911274, "D": 313.0364238856055}, "9": {"R": 1.760545022412077, "A": 91.87831168193811, "D": 358.6329746118242}, "10": {"R": 1.7686703505628065, "A": 60.18513611816424, "D": 290.0642127933738}}

$$$$

     RDKit          3D

 21 19  0  0  0  0  0  0  0  0999 V2000
   -1.3997   -1.1265    1.0403 C   0  0  0  0  0  0  0  0  0  0  0  0
   -1.5912    0.3187   -0.0191 S   0  0  0  0  0  0  0  0  0  0  0  0
   -0.4654    1.4545    0.7192 C   0  0  0  0  0  0  0  0  0  0  0  0
   -0.5189    1.6903    2.2080 C   0  0  0  0  0  0  0  0  0  0  0  0
   -1.8384   -0.9673    2.0241 H   0  0  0  0  0  0  0  0  0  0  0  0
   -0.3456   -1.3858    1.1345 H   0  0  0  0  0  0  0  0  0  0  0  0
   -1.9237   -1.9445    0.5484 H   0  0  0  0  0  0  0  0  0  0  0  0
   -0.4911    2.3689    0.1275 H   0  0  0  0  0  0  0  0  0  0  0  0
    0.2399    2.4204    2.4956 H   0  0  0  0  0  0  0  0  0  0  0  0
   -0.3208    0.7734    2.7650 H   0  0  0  0  0  0  0  0  0  0  0  0
   -1.4950    2.0728    2.5182 H   0  0  0  0  0  0  0  0  0  0  0  0
    1.9446    0.3872    0.2097 C   0  0  0  0  0  0  0  0  0  0  0  0
    1.8750   -0.6180   -0.5700 C   0  0  0  0  0  0  0  0  0  0  0  0
    1.6601   -1.6321   -1.3843 C   0  0  0  0  0  3  0  0  0  0  0  0
    1.6298   -1.5233   -2.8786 C   0  0  0  0  0  0  0  0  0  0  0  0
    0.7466    0.9655    0.4705 H   0  0  0  0  0  0  0  0  0  0  0  0
    2.7857    0.8701    0.6832 H   0  0  0  0  0  0  0  0  0  0  0  0
    1.5036   -2.6143   -0.9478 H   0  0  0  0  0  0  0  0  0  0  0  0
    2.3882   -2.1655   -3.3339 H   0  0  0  0  0  0  0  0  0  0  0  0
    1.8053   -0.4981   -3.2011 H   0  0  0  0  0  0  0  0  0  0  0  0
    0.6589   -1.8435   -3.2656 H   0  0  0  0  0  0  0  0  0  0  0  0
  1  2  1  0
  1  5  1  0
  1  6  1  0
  1  7  1  0
  2  3  1  0
  3  4  1  0
  3  8  1  0
  3 16  1  0
  4  9  1  0
  4 10  1  0
  4 11  1  0
 12 13  3  0
 12 17  1  0
 13 14  1  0
 14 15  1  0
 14 18  1  0
 15 19  1  0
 15 20  1  0
 15 21  1  0
M  RAD  1  14   2
M  END
>  <reaction>  (3) 
rmg_rxn_14044

>  <type>  (3) 
ts

>  <mol_properties>  (3) 
{"1": {"label": "*0", "atom_type": "S2s"}, "2": {"label": "*1", "atom_type": "Cs"}, "11": {"label": "*3", "atom_type": "Ct"}, "12": {"label": "*4", "atom_type": "Ct"}, "15": {"label": "*2", "atom_type": "H0"}}

$$$$
