
     RDKit          3D

 10  9  0  0  0  0  0  0  0  0999 V2000
    0.5657   -0.7396   -1.6620 C   0  0  0  0  0  0  0  0  0  0  0  0
    0.4107   -0.2072   -0.4879 C   0  0  0  0  0  0  0  0  0  0  0  0
    0.2440    0.3324    0.6929 C   0  0  0  0  0  0  0  0  0  0  0  0
   -1.0606    0.5921    1.3189 C   0  0  0  0  0  0  0  0  0  0  0  0
    0.6598   -0.1259   -2.5512 H   0  0  0  0  0  0  0  0  0  0  0  0
    0.5978   -1.8162   -1.7916 H   0  0  0  0  0  0  0  0  0  0  0  0
    1.1362    0.5610    1.2702 H   0  0  0  0  0  0  0  0  0  0  0  0
   -1.2825   -0.2403    1.9824 H   0  0  0  0  0  0  0  0  0  0  0  0
   -1.9003    0.5851    0.6292 H   0  0  0  0  0  0  0  0  0  0  0  0
   -1.0732    1.4530    1.9843 H   0  0  0  0  0  0  0  0  0  0  0  0
  1  2  2  0
  1  5  1  0
  1  6  1  0
  2  3  2  0
  3  4  1  0
  3  7  1  0
  4  8  1  0
  4  9  1  0
  4 10  1  0
M  END
>  <reaction>  (1) 
rmg_rxn_14171

>  <type>  (1) 
r1h

>  <mol_properties>  (1) 
{"3": {"label": "donator", "atom_type": "Cs"}, "7": {"label": "d_hydrogen", "atom_type": "H0"}}

>  <electro_map>  (1) 
{"7": {"R": null, "A": null, "D": null}, "3": {"R": 1.0874016859843094, "A": null, "D": null}, "2": {"R": 1.4702338981090477, "A": 107.79697521564933, "D": null}, "1": {"R": 1.3089156936208295, "A": 122.65080236170007, "D": 255.90958028420224}, "0": {"R": 1.0, "A": 90.0, "D": 180.0}, "4": {"R": 1.2984161411920323, "A": 90.0, "D": 180.0}, "5": {"R": 1.0845600970594511, "A": 121.23593090559714, "D": 92.62547814902649}, "6": {"R": 1.8542454592075839, "A": 31.276848544333557, "D": 180.49527767796607}, "8": {"R": 3.9134871922345904, "A": 76.24201736367345, "D": 345.8888194606168}, "9": {"R": 3.1035259191439564, "A": 73.05513255142883, "D": 82.0613739442504}}

$$$$

     RDKit          3D

  9  8  0  0  0  0  0  0  0  0999 V2000
    0.2938    0.9130    1.4692 C   0  0  0  0  0  0  0  0  0  0  0  0
    0.6705   -0.1892    0.5261 C   0  0  0  0  0  0  0  0  0  0  0  0
   -0.4122   -0.3407   -0.9274 S   0  0  0  0  0  0  0  0  0  0  0  0
   -0.7542    0.9565    1.7556 H   0  0  0  0  0  0  0  0  0  0  0  0
    0.9723    1.0400    2.3115 H   0  0  0  0  0  0  0  0  0  0  0  0
    0.7130   -1.1585    1.0296 H   0  0  0  0  0  0  0  0  0  0  0  0
    1.6640   -0.0084    0.1092 H   0  0  0  0  0  0  0  0  0  0  0  0
   -1.5059   -0.7394   -0.2641 H   0  0  0  0  0  0  0  0  0  0  0  0
    0.4565    1.8242    0.8971 H   0  0  0  0  0  0  0  0  0  0  0  0
  1  2  1  0
  1  4  1  0
  1  5  1  0
  1  9  1  0
  2  3  1  0
  2  6  1  0
  2  7  1  0
  3  8  1  0
M  END
>  <reaction>  (2) 
rmg_rxn_14171

>  <type>  (2) 
r2h

>  <mol_properties>  (2) 
{"0": {"label": "acceptor", "atom_type": "Cs"}, "8": {"label": "a_hydrogen", "atom_type": "H0"}}

>  <electro_map>  (2) 
{"8": {"R": null, "A": null, "D": null}, "0": {"R": 1.0881536908779539, "A": null, "D": null}, "1": {"R": 1.4987147706180863, "A": 104.3263573379867, "D": null}, "2": {"R": 1.8187728067652607, "A": 99.41529087698156, "D": 122.83789417517285}, "7": {"R": 1.3398467750626382, "A": 96.60652035408512, "D": 292.47504055319996}, "3": {"R": 2.742246013136626, "A": 87.5276718724097, "D": 36.44794427416902}, "4": {"R": 1.8156704632685725, "A": 120.97047829411939, "D": 315.98921049307404}, "5": {"R": 2.558077741233462, "A": 73.18144803058601, "D": 341.7415104495086}, "6": {"R": 1.7533750685497849, "A": 69.16588080826234, "D": 108.39611573390688}}

$$$$

     RDKit          3D

 18 16  0  0  0  0  0  0  0  0999 V2000
   -0.7981   -0.1060    2.0527 C   0  0  0  0  0  3  0  0  0  0  0  0
   -0.4214   -1.2082    1.1096 C   0  0  0  0  0  0  0  0  0  0  0  0
   -1.5041   -1.3596   -0.3439 S   0  0  0  0  0  0  0  0  0  0  0  0
   -1.8461   -0.0625    2.3391 H   0  0  0  0  0  0  0  0  0  0  0  0
   -0.1196    0.0211    2.8950 H   0  0  0  0  0  0  0  0  0  0  0  0
   -0.3789   -2.1774    1.6131 H   0  0  0  0  0  0  0  0  0  0  0  0
    0.5722   -1.0273    0.6928 H   0  0  0  0  0  0  0  0  0  0  0  0
   -2.5978   -1.7583    0.3195 H   0  0  0  0  0  0  0  0  0  0  0  0
    1.3027    0.7347   -2.4586 C   0  0  0  0  0  0  0  0  0  0  0  0
    1.1476    1.2670   -1.2846 C   0  0  0  0  0  0  0  0  0  0  0  0
    0.9810    1.8067   -0.1038 C   0  0  0  0  0  0  0  0  0  0  0  0
   -0.3237    2.0664    0.5223 C   0  0  0  0  0  0  0  0  0  0  0  0
    1.3968    1.3484   -3.3479 H   0  0  0  0  0  0  0  0  0  0  0  0
    1.3348   -0.3420   -2.5882 H   0  0  0  0  0  0  0  0  0  0  0  0
    1.8732    2.0352    0.4736 H   0  0  0  0  0  0  0  0  0  0  0  0
   -0.5860    1.0822    1.3068 H   0  0  0  0  0  0  0  0  0  0  0  0
   -1.1634    2.0594   -0.1674 H   0  0  0  0  0  0  0  0  0  0  0  0
   -0.3362    2.9273    1.1877 H   0  0  0  0  0  0  0  0  0  0  0  0
  1  2  1  0
  1  4  1  0
  1  5  1  0
  2  3  1  0
  2  6  1  0
  2  7  1  0
  3  8  1  0
  9 10  2  0
  9 13  1  0
  9 14  1  0
 10 11  2  0
 11 12  1  0
 11 15  1  0
 12 16  1  0
 12 17  1  0
 12 18  1  0
M  RAD  1   1   2
M  END
>  <reaction>  (3) 
rmg_rxn_14171

>  <type>  (3) 
ts

>  <mol_properties>  (3) 
{"0": {"label": "*3", "atom_type": "Cs"}, "1": {"label": "*4", "atom_type": "Cs"}, "10": {"label": "*0", "atom_type": "Cd"}, "11": {"label": "*1", "atom_type": "Cs"}, "15": {"label": "*2", "atom_type": "H0"}}

$$$$
