
     RDKit          3D

 10  9  0  0  0  0  0  0  0  0999 V2000
    0.4344    0.5579    1.7480 C   0  0  0  0  0  0  0  0  0  0  0  0
    0.0240   -0.0151    0.6850 C   0  0  0  0  0  0  0  0  0  0  0  0
   -0.4776   -0.4916   -0.4358 C   0  0  0  0  0  0  0  0  0  0  0  0
    0.0108   -0.1108   -1.8018 C   0  0  0  0  0  0  0  0  0  0  0  0
   -0.1116    1.4450    2.0313 H   0  0  0  0  0  0  0  0  0  0  0  0
    1.2348    0.3023    2.4259 H   0  0  0  0  0  0  0  0  0  0  0  0
   -1.2828   -1.2169   -0.3714 H   0  0  0  0  0  0  0  0  0  0  0  0
    0.3939   -0.9822   -2.3393 H   0  0  0  0  0  0  0  0  0  0  0  0
    0.8073    0.6304   -1.7422 H   0  0  0  0  0  0  0  0  0  0  0  0
   -0.8026    0.3053   -2.4026 H   0  0  0  0  0  0  0  0  0  0  0  0
  1  2  2  0
  1  5  1  0
  1  6  1  0
  2  3  2  0
  3  4  1  0
  3  7  1  0
  4  8  1  0
  4  9  1  0
  4 10  1  0
M  END
>  <reaction>  (1) 
rmg_rxn_14055

>  <type>  (1) 
r1h

>  <mol_properties>  (1) 
{"0": {"label": "donator", "atom_type": "Cd"}, "4": {"label": "d_hydrogen", "atom_type": "H0"}}

>  <electro_map>  (1) 
{"4": {"R": null, "A": null, "D": null}, "0": {"R": 1.0795627902888603, "A": null, "D": null}, "1": {"R": 1.2754625939806306, "A": 115.15484855583207, "D": null}, "2": {"R": 1.317120683633828, "A": 144.57625904204411, "D": 182.113932771237}, "3": {"R": 1.499842953408021, "A": 123.99754722693758, "D": 79.79091508968659}, "5": {"R": 4.4207300651681996, "A": 40.78777590134616, "D": 12.035627431408326}, "6": {"R": 4.058521376580411, "A": 30.01441524669521, "D": 6.153627090349462}, "7": {"R": 2.5959764599313258, "A": 95.04652032518682, "D": 22.149869219835658}, "8": {"R": 1.7686220237345076, "A": 88.71124554835983, "D": 316.05496605166854}, "9": {"R": 1.7702773249768722, "A": 59.60137245995742, "D": 292.6870351219847}}

$$$$

     RDKit          3D

 15 14  0  0  0  0  0  0  0  0999 V2000
    1.5679   -1.1699    1.8948 H   0  0  0  0  0  0  0  0  0  0  0  0
    0.8975   -0.3161    2.0057 C   0  0  0  0  0  0  0  0  0  0  0  0
    0.0849   -0.3228    0.9091 O   0  0  0  0  0  0  0  0  0  0  0  0
    0.7070    0.1280   -0.2825 C   0  0  0  0  0  0  0  0  0  0  0  0
   -0.2255   -0.1209   -1.4469 C   0  0  0  0  0  0  0  0  0  0  0  0
   -1.5315    0.6565   -1.3538 C   0  0  0  0  0  0  0  0  0  0  0  0
    0.3222   -0.5173    2.9062 H   0  0  0  0  0  0  0  0  0  0  0  0
    1.5541    0.5566    2.0844 H   0  0  0  0  0  0  0  0  0  0  0  0
    1.6506   -0.4090   -0.4251 H   0  0  0  0  0  0  0  0  0  0  0  0
    0.9341    1.1993   -0.1852 H   0  0  0  0  0  0  0  0  0  0  0  0
   -0.4267   -1.1942   -1.4958 H   0  0  0  0  0  0  0  0  0  0  0  0
    0.3081    0.1456   -2.3635 H   0  0  0  0  0  0  0  0  0  0  0  0
   -2.1708    0.4519   -2.2138 H   0  0  0  0  0  0  0  0  0  0  0  0
   -2.0801    0.3859   -0.4515 H   0  0  0  0  0  0  0  0  0  0  0  0
   -1.3445    1.7327   -1.3237 H   0  0  0  0  0  0  0  0  0  0  0  0
  1  2  1  0
  2  3  1  0
  2  7  1  0
  2  8  1  0
  3  4  1  0
  4  5  1  0
  4  9  1  0
  4 10  1  0
  5  6  1  0
  5 11  1  0
  5 12  1  0
  6 13  1  0
  6 14  1  0
  6 15  1  0
M  END
>  <reaction>  (2) 
rmg_rxn_14055

>  <type>  (2) 
r2h

>  <mol_properties>  (2) 
{"0": {"label": "a_hydrogen", "atom_type": "H0"}, "1": {"label": "acceptor", "atom_type": "Cs"}}

>  <electro_map>  (2) 
{"0": {"R": null, "A": null, "D": null}, "1": {"R": 1.0911791970092066, "A": null, "D": null}, "2": {"R": 1.3649003434744154, "A": 106.2775517046945, "D": null}, "3": {"R": 1.417773693109393, "A": 103.09945967038917, "D": 115.21989181467309}, "4": {"R": 1.5124490240665238, "A": 108.91718365660661, "D": 171.69775151014406}, "5": {"R": 1.5227479596848472, "A": 113.43769956074863, "D": 62.97164073533456}, "6": {"R": 4.791896162204029, "A": 66.26564116718731, "D": 329.35412970462534}, "7": {"R": 1.8292836487133293, "A": 73.57937548231838, "D": 61.4876681514266}, "8": {"R": 2.690577762911287, "A": 103.4439729458018, "D": 315.1741485519778}, "9": {"R": 1.7769151107871202, "A": 62.27700753418836, "D": 110.91173100782791}, "10": {"R": 3.0493121450255454, "A": 53.94820397173301, "D": 236.711708078882}, "11": {"R": 1.757209979745759, "A": 55.053020638786535, "D": 259.77204884197283}, "12": {"R": 2.5022598543136008, "A": 69.4836950166532, "D": 261.04433529073464}, "13": {"R": 1.7657870328028926, "A": 90.24529475635657, "D": 57.85280218607912}, "14": {"R": 1.765118619158587, "A": 59.98359503191823, "D": 66.38292219599774}}

$$$$

     RDKit          3D

 24 22  0  0  0  0  0  0  0  0999 V2000
    1.6025   -1.1947    1.6542 C   0  0  0  0  0  0  0  0  0  0  0  0
    1.1921   -1.7676    0.5912 C   0  0  0  0  0  0  0  0  0  0  0  0
    0.6905   -2.2441   -0.5296 C   0  0  0  0  0  3  0  0  0  0  0  0
    1.1789   -1.8633   -1.8956 C   0  0  0  0  0  0  0  0  0  0  0  0
    0.9176   -0.0819    2.0095 H   0  0  0  0  0  0  0  0  0  0  0  0
    2.4029   -1.4502    2.3321 H   0  0  0  0  0  0  0  0  0  0  0  0
   -0.1148   -2.9694   -0.4652 H   0  0  0  0  0  0  0  0  0  0  0  0
    1.5620   -2.7347   -2.4331 H   0  0  0  0  0  0  0  0  0  0  0  0
    1.9754   -1.1221   -1.8360 H   0  0  0  0  0  0  0  0  0  0  0  0
    0.3655   -1.4472   -2.4964 H   0  0  0  0  0  0  0  0  0  0  0  0
    0.0935    0.9675    2.1459 C   0  0  0  0  0  0  0  0  0  0  0  0
   -0.7190    0.9609    1.0492 O   0  0  0  0  0  0  0  0  0  0  0  0
   -0.0969    1.4116   -0.1423 C   0  0  0  0  0  0  0  0  0  0  0  0
   -1.0294    1.1628   -1.3068 C   0  0  0  0  0  0  0  0  0  0  0  0
   -2.3354    1.9401   -1.2137 C   0  0  0  0  0  0  0  0  0  0  0  0
   -0.4817    0.7664    3.0464 H   0  0  0  0  0  0  0  0  0  0  0  0
    0.7502    1.8403    2.2246 H   0  0  0  0  0  0  0  0  0  0  0  0
    0.8467    0.8747   -0.2849 H   0  0  0  0  0  0  0  0  0  0  0  0
    0.1302    2.4830   -0.0450 H   0  0  0  0  0  0  0  0  0  0  0  0
   -1.2306    0.0895   -1.3557 H   0  0  0  0  0  0  0  0  0  0  0  0
   -0.4958    1.4292   -2.2234 H   0  0  0  0  0  0  0  0  0  0  0  0
   -2.9747    1.7356   -2.0736 H   0  0  0  0  0  0  0  0  0  0  0  0
   -2.8840    1.6695   -0.3114 H   0  0  0  0  0  0  0  0  0  0  0  0
   -2.1484    3.0163   -1.1836 H   0  0  0  0  0  0  0  0  0  0  0  0
  1  2  3  0
  1  6  1  0
  2  3  1  0
  3  4  1  0
  3  7  1  0
  4  8  1  0
  4  9  1  0
  4 10  1  0
  5 11  1  0
 11 12  1  0
 11 16  1  0
 11 17  1  0
 12 13  1  0
 13 14  1  0
 13 18  1  0
 13 19  1  0
 14 15  1  0
 14 20  1  0
 14 21  1  0
 15 22  1  0
 15 23  1  0
 15 24  1  0
M  RAD  1   3   2
M  END
>  <reaction>  (3) 
rmg_rxn_14055

>  <type>  (3) 
ts

>  <mol_properties>  (3) 
{"0": {"label": "*3", "atom_type": "Ct"}, "1": {"label": "*4", "atom_type": "Ct"}, "4": {"label": "*2", "atom_type": "H0"}, "10": {"label": "*1", "atom_type": "Cs"}, "11": {"label": "*0", "atom_type": "O2s"}}

$$$$
