
     RDKit          3D

 10  9  0  0  0  0  0  0  0  0999 V2000
   -1.1252   -0.1870    1.5290 C   0  0  0  0  0  0  0  0  0  0  0  0
   -0.4427    0.1562    0.4778 C   0  0  0  0  0  0  0  0  0  0  0  0
    0.2429    0.4950   -0.5856 C   0  0  0  0  0  0  0  0  0  0  0  0
    1.1599   -0.3867   -1.3140 C   0  0  0  0  0  0  0  0  0  0  0  0
   -0.7041   -0.1069    2.5261 H   0  0  0  0  0  0  0  0  0  0  0  0
   -2.1392   -0.5639    1.4468 H   0  0  0  0  0  0  0  0  0  0  0  0
    0.1761    1.5277   -0.9161 H   0  0  0  0  0  0  0  0  0  0  0  0
    2.1520   -0.2292   -0.8985 H   0  0  0  0  0  0  0  0  0  0  0  0
    1.2918   -0.1313   -2.3619 H   0  0  0  0  0  0  0  0  0  0  0  0
    0.9917   -1.4495   -1.1565 H   0  0  0  0  0  0  0  0  0  0  0  0
  1  2  2  0
  1  5  1  0
  1  6  1  0
  2  3  2  0
  3  4  1  0
  3  7  1  0
  4  8  1  0
  4  9  1  0
  4 10  1  0
M  END
>  <reaction>  (1) 
rmg_rxn_14137

>  <type>  (1) 
r1h

>  <mol_properties>  (1) 
{"3": {"label": "donator", "atom_type": "Cs"}, "7": {"label": "d_hydrogen", "atom_type": "H0"}}

>  <electro_map>  (1) 
{"7": {"R": null, "A": null, "D": null}, "3": {"R": 1.0870455022340635, "A": null, "D": null}, "2": {"R": 1.4659004977339327, "A": 107.08798274574023, "D": null}, "1": {"R": 1.3098003688883382, "A": 121.06811998302973, "D": 107.452458541902}, "0": {"R": 1.0, "A": 90.0, "D": 180.0}, "4": {"R": 1.2994680563452377, "A": 90.0, "D": 180.0}, "5": {"R": 1.085301274604861, "A": 121.45361847109791, "D": 86.63010335094317}, "6": {"R": 1.8529337380631257, "A": 31.368155379684538, "D": 179.92462506748933}, "8": {"R": 3.9138809740684253, "A": 76.21241130798357, "D": 345.3816119806977}, "9": {"R": 2.467286654044791, "A": 105.18481554128131, "D": 103.53370430395839}}

$$$$

     RDKit          3D

 18 17  0  0  0  0  0  0  0  0999 V2000
   -0.4911   -1.9223   -0.5230 H   0  0  0  0  0  0  0  0  0  0  0  0
    0.3471   -2.6932    1.1992 C   0  0  0  0  0  0  0  0  0  0  0  0
    0.4163   -1.7316    0.0477 C   0  0  0  0  0  0  0  0  0  0  0  0
    0.2619   -0.2865    0.3983 C   0  0  0  0  0  0  0  0  0  0  0  0
    0.2550    0.4803   -0.7808 O   0  0  0  0  0  0  0  0  0  0  0  0
    0.1155    1.8666   -0.5702 C   0  0  0  0  0  0  0  0  0  0  0  0
   -1.3187    2.2947   -0.3055 C   0  0  0  0  0  0  0  0  0  0  0  0
    0.4047   -3.7261    0.8543 H   0  0  0  0  0  0  0  0  0  0  0  0
    1.1667   -2.5367    1.9099 H   0  0  0  0  0  0  0  0  0  0  0  0
   -0.5911   -2.5748    1.7486 H   0  0  0  0  0  0  0  0  0  0  0  0
    1.2138   -1.9158   -0.6703 H   0  0  0  0  0  0  0  0  0  0  0  0
    1.0880    0.0434    1.0535 H   0  0  0  0  0  0  0  0  0  0  0  0
   -0.6703   -0.1508    0.9667 H   0  0  0  0  0  0  0  0  0  0  0  0
    0.4823    2.3445   -1.4804 H   0  0  0  0  0  0  0  0  0  0  0  0
    0.7664    2.1868    0.2552 H   0  0  0  0  0  0  0  0  0  0  0  0
   -1.3686    3.3778   -0.1775 H   0  0  0  0  0  0  0  0  0  0  0  0
   -1.9568    2.0202   -1.1468 H   0  0  0  0  0  0  0  0  0  0  0  0
   -1.7207    1.8327    0.5974 H   0  0  0  0  0  0  0  0  0  0  0  0
  1  3  1  0
  2  3  1  0
  2  8  1  0
  2  9  1  0
  2 10  1  0
  3  4  1  0
  3 11  1  0
  4  5  1  0
  4 12  1  0
  4 13  1  0
  5  6  1  0
  6  7  1  0
  6 14  1  0
  6 15  1  0
  7 16  1  0
  7 17  1  0
  7 18  1  0
M  END
>  <reaction>  (2) 
rmg_rxn_14137

>  <type>  (2) 
r2h

>  <mol_properties>  (2) 
{"0": {"label": "a_hydrogen", "atom_type": "H0"}, "2": {"label": "acceptor", "atom_type": "Cs"}}

>  <electro_map>  (2) 
{"0": {"R": null, "A": null, "D": null}, "2": {"R": 1.0888165517759756, "A": null, "D": null}, "3": {"R": 1.4949683994283314, "A": 101.89564829874905, "D": null}, "4": {"R": 1.4065442095391318, "A": 93.28157865438905, "D": 122.46360292427856}, "5": {"R": 1.4091738504459412, "A": 114.30358342244645, "D": 180.07320123521208}, "1": {"R": 4.896579225684326, "A": 29.90872511956011, "D": 357.81033729455334}, "6": {"R": 5.469679573618689, "A": 15.633520907617509, "D": 247.49437303027662}, "7": {"R": 6.369033714316604, "A": 5.989782785981048, "D": 92.35172348010677}, "8": {"R": 1.7633774216926588, "A": 65.69081690365111, "D": 342.3698165355539}, "9": {"R": 1.7656060276868881, "A": 60.03451881020503, "D": 53.35500762473643}, "10": {"R": 3.0891813202283944, "A": 59.01862254125266, "D": 296.33243178141544}, "11": {"R": 2.6125978223382607, "A": 67.36845287731192, "D": 286.64057932684074}, "12": {"R": 1.7710887799489843, "A": 86.17245321899856, "D": 309.89672079754047}, "13": {"R": 3.6800560250371337, "A": 69.35037160441748, "D": 268.09194779657906}, "14": {"R": 1.7657063558284025, "A": 48.41298699942937, "D": 308.1367661929889}, "15": {"R": 2.4827012475873387, "A": 69.35942412215508, "D": 275.0949112488599}, "16": {"R": 1.7687847929319371, "A": 90.76216075424026, "D": 56.319955848076916}, "17": {"R": 1.770113952222955, "A": 59.79932098591467, "D": 67.51202215231768}}

$$$$

     RDKit          3D

 27 25  0  0  0  0  0  0  0  0999 V2000
   -2.9905   -1.3253    1.6585 C   0  0  0  0  0  0  0  0  0  0  0  0
   -2.3081   -0.9821    0.6073 C   0  0  0  0  0  0  0  0  0  0  0  0
   -1.6225   -0.6433   -0.4561 C   0  0  0  0  0  0  0  0  0  0  0  0
   -0.7055   -1.5250   -1.1845 C   0  0  0  0  0  0  0  0  0  0  0  0
   -2.5694   -1.2452    2.6556 H   0  0  0  0  0  0  0  0  0  0  0  0
   -4.0046   -1.7022    1.5763 H   0  0  0  0  0  0  0  0  0  0  0  0
   -1.6893    0.3894   -0.7866 H   0  0  0  0  0  0  0  0  0  0  0  0
    0.4837   -1.3362   -0.6865 H   0  0  0  0  0  0  0  0  0  0  0  0
   -0.5736   -1.2696   -2.2324 H   0  0  0  0  0  0  0  0  0  0  0  0
   -0.8736   -2.5878   -1.0270 H   0  0  0  0  0  0  0  0  0  0  0  0
    1.5739   -2.0542    1.1942 C   0  0  0  0  0  0  0  0  0  0  0  0
    1.6431   -1.0926    0.0427 C   0  0  0  0  0  3  0  0  0  0  0  0
    1.4887    0.3525    0.3933 C   0  0  0  0  0  0  0  0  0  0  0  0
    1.4818    1.1193   -0.7858 O   0  0  0  0  0  0  0  0  0  0  0  0
    1.3423    2.5056   -0.5753 C   0  0  0  0  0  0  0  0  0  0  0  0
   -0.0919    2.9337   -0.3105 C   0  0  0  0  0  0  0  0  0  0  0  0
    1.6315   -3.0871    0.8493 H   0  0  0  0  0  0  0  0  0  0  0  0
    2.3936   -1.8977    1.9048 H   0  0  0  0  0  0  0  0  0  0  0  0
    0.6358   -1.9358    1.7436 H   0  0  0  0  0  0  0  0  0  0  0  0
    2.4406   -1.2768   -0.6753 H   0  0  0  0  0  0  0  0  0  0  0  0
    2.3148    0.6824    1.0485 H   0  0  0  0  0  0  0  0  0  0  0  0
    0.5565    0.4882    0.9616 H   0  0  0  0  0  0  0  0  0  0  0  0
    1.7092    2.9835   -1.4854 H   0  0  0  0  0  0  0  0  0  0  0  0
    1.9932    2.8258    0.2501 H   0  0  0  0  0  0  0  0  0  0  0  0
   -0.1417    4.0168   -0.1825 H   0  0  0  0  0  0  0  0  0  0  0  0
   -0.7300    2.6592   -1.1518 H   0  0  0  0  0  0  0  0  0  0  0  0
   -0.4939    2.4717    0.5924 H   0  0  0  0  0  0  0  0  0  0  0  0
  1  2  2  0
  1  5  1  0
  1  6  1  0
  2  3  2  0
  3  4  1  0
  3  7  1  0
  4  8  1  0
  4  9  1  0
  4 10  1  0
 11 12  1  0
 11 17  1  0
 11 18  1  0
 11 19  1  0
 12 13  1  0
 12 20  1  0
 13 14  1  0
 13 21  1  0
 13 22  1  0
 14 15  1  0
 15 16  1  0
 15 23  1  0
 15 24  1  0
 16 25  1  0
 16 26  1  0
 16 27  1  0
M  RAD  1  12   2
M  END
>  <reaction>  (3) 
rmg_rxn_14137

>  <type>  (3) 
ts

>  <mol_properties>  (3) 
{"2": {"label": "*0", "atom_type": "Cd"}, "3": {"label": "*1", "atom_type": "Cs"}, "7": {"label": "*2", "atom_type": "H0"}, "11": {"label": "*3", "atom_type": "Cs"}, "12": {"label": "*4", "atom_type": "Cs"}}

$$$$
