
     RDKit          3D

 10  9  0  0  0  0  0  0  0  0999 V2000
   -1.1930   -1.4987    0.4379 C   0  0  0  0  0  0  0  0  0  0  0  0
   -0.2934   -0.5927    0.1208 C   0  0  0  0  0  0  0  0  0  0  0  0
    0.6380    0.2192   -0.1978 C   0  0  0  0  0  0  0  0  0  0  0  0
    0.7610    1.6947   -0.3277 C   0  0  0  0  0  0  0  0  0  0  0  0
   -1.8338   -1.9397   -0.3162 H   0  0  0  0  0  0  0  0  0  0  0  0
   -1.3330   -1.8136    1.4650 H   0  0  0  0  0  0  0  0  0  0  0  0
    1.5941   -0.2618   -0.4040 H   0  0  0  0  0  0  0  0  0  0  0  0
   -0.1557    2.1981   -0.0171 H   0  0  0  0  0  0  0  0  0  0  0  0
    0.9748    1.9725   -1.3621 H   0  0  0  0  0  0  0  0  0  0  0  0
    1.5878    2.0623    0.2836 H   0  0  0  0  0  0  0  0  0  0  0  0
  1  2  2  0
  1  5  1  0
  1  6  1  0
  2  3  2  0
  3  4  1  0
  3  7  1  0
  4  8  1  0
  4  9  1  0
  4 10  1  0
M  END
>  <reaction>  (1) 
rmg_rxn_13881

>  <type>  (1) 
r1h

>  <mol_properties>  (1) 
{"2": {"label": "donator", "atom_type": "Cd"}, "6": {"label": "d_hydrogen", "atom_type": "H0"}}

>  <electro_map>  (1) 
{"6": {"R": null, "A": null, "D": null}, "2": {"R": 1.0900000456713745, "A": null, "D": null}, "1": {"R": 1.2760023720847775, "A": 114.00234564852246, "D": null}, "0": {"R": 1.315477264155628, "A": 145.89375769622427, "D": 179.86451859769326}, "3": {"R": 3.8212717174328428, "A": 13.221203739750752, "D": 178.8907871703607}, "4": {"R": 4.465656837259126, "A": 12.102721245683146, "D": 97.90583173842431}, "5": {"R": 1.8546035837601842, "A": 77.892198807489, "D": 8.713152392214452}, "7": {"R": 4.4358044460936705, "A": 79.17750819819831, "D": 14.32493034165484}, "8": {"R": 1.7714365960084426, "A": 107.93277852442668, "D": 302.9150207830848}, "9": {"R": 1.758526534122465, "A": 60.354807652606105, "D": 271.50258104426734}}

$$$$

     RDKit          3D

  9  8  0  0  0  0  0  0  0  0999 V2000
   -0.8428   -1.5074   -0.3794 C   0  0  0  0  0  0  0  0  0  0  0  0
   -0.5276   -0.0578   -0.6278 C   0  0  0  0  0  0  0  0  0  0  0  0
    0.6609    0.7318    0.4241 S   0  0  0  0  0  0  0  0  0  0  0  0
   -1.6236   -1.8441   -1.0637 H   0  0  0  0  0  0  0  0  0  0  0  0
   -1.2081   -1.6555    0.6391 H   0  0  0  0  0  0  0  0  0  0  0  0
    0.0391   -2.1377   -0.5196 H   0  0  0  0  0  0  0  0  0  0  0  0
   -0.2788    0.1825   -1.6602 H   0  0  0  0  0  0  0  0  0  0  0  0
    0.1375    0.3233    1.5892 H   0  0  0  0  0  0  0  0  0  0  0  0
   -1.4862    0.4371   -0.4806 H   0  0  0  0  0  0  0  0  0  0  0  0
  1  2  1  0
  1  4  1  0
  1  5  1  0
  1  6  1  0
  2  3  1  0
  2  7  1  0
  2  9  1  0
  3  8  1  0
M  END
>  <reaction>  (2) 
rmg_rxn_13881

>  <type>  (2) 
r2h

>  <mol_properties>  (2) 
{"1": {"label": "acceptor", "atom_type": "Cs"}, "8": {"label": "a_hydrogen", "atom_type": "H0"}}

>  <electro_map>  (2) 
{"8": {"R": null, "A": null, "D": null}, "1": {"R": 1.088794216567662, "A": null, "D": null}, "2": {"R": 1.7726747998561163, "A": 107.9096826472876, "D": null}, "0": {"R": 2.8143398624796094, "A": 45.710977415775154, "D": 323.95970380044616}, "7": {"R": 2.8614866037063527, "A": 27.31603433323304, "D": 229.9167932880945}, "3": {"R": 3.851912105393344, "A": 7.920991117344085, "D": 97.8017715822848}, "4": {"R": 1.7628368542765187, "A": 33.56953215495169, "D": 81.28089896963311}, "5": {"R": 1.769352447031859, "A": 60.29533427006524, "D": 285.8046637855367}, "6": {"R": 2.6048991482884527, "A": 87.58932078751127, "D": 64.2323728742046}}

$$$$

     RDKit          3D

 18 16  0  0  0  0  0  0  0  0999 V2000
    0.8290   -1.9590   -0.3661 C   0  0  0  0  0  0  0  0  0  0  0  0
    1.1442   -0.5094   -0.6145 C   0  0  0  0  0  3  0  0  0  0  0  0
    2.3326    0.2802    0.4374 S   0  0  0  0  0  0  0  0  0  0  0  0
    0.0482   -2.2957   -1.0504 H   0  0  0  0  0  0  0  0  0  0  0  0
    0.4637   -2.1071    0.6524 H   0  0  0  0  0  0  0  0  0  0  0  0
    1.7109   -2.5893   -0.5063 H   0  0  0  0  0  0  0  0  0  0  0  0
    1.3930   -0.2691   -1.6469 H   0  0  0  0  0  0  0  0  0  0  0  0
    1.8093   -0.1283    1.6025 H   0  0  0  0  0  0  0  0  0  0  0  0
   -3.0353   -1.0301    0.4541 C   0  0  0  0  0  0  0  0  0  0  0  0
   -2.1357   -0.1242    0.1371 C   0  0  0  0  0  0  0  0  0  0  0  0
   -1.2044    0.6877   -0.1815 C   0  0  0  0  0  0  0  0  0  0  0  0
   -1.0813    2.1633   -0.3115 C   0  0  0  0  0  0  0  0  0  0  0  0
   -3.6761   -1.4711   -0.3000 H   0  0  0  0  0  0  0  0  0  0  0  0
   -3.1753   -1.3450    1.4813 H   0  0  0  0  0  0  0  0  0  0  0  0
   -0.0415    0.1028   -0.4324 H   0  0  0  0  0  0  0  0  0  0  0  0
   -1.9980    2.6666   -0.0009 H   0  0  0  0  0  0  0  0  0  0  0  0
   -0.8676    2.4410   -1.3459 H   0  0  0  0  0  0  0  0  0  0  0  0
   -0.2545    2.5309    0.2999 H   0  0  0  0  0  0  0  0  0  0  0  0
  1  2  1  0
  1  4  1  0
  1  5  1  0
  1  6  1  0
  2  3  1  0
  2  7  1  0
  3  8  1  0
  9 10  2  0
  9 13  1  0
  9 14  1  0
 10 11  2  0
 11 12  1  0
 11 15  1  0
 12 16  1  0
 12 17  1  0
 12 18  1  0
M  RAD  1   2   2
M  END
>  <reaction>  (3) 
rmg_rxn_13881

>  <type>  (3) 
ts

>  <mol_properties>  (3) 
{"1": {"label": "*3", "atom_type": "Cs"}, "2": {"label": "*4", "atom_type": "S2s"}, "9": {"label": "*0", "atom_type": "Cdd"}, "10": {"label": "*1", "atom_type": "Cd"}, "14": {"label": "*2", "atom_type": "H0"}}

$$$$
