
     RDKit          3D

 10  9  0  0  0  0  0  0  0  0999 V2000
   -1.1690   -1.4639    0.2167 C   0  0  0  0  0  0  0  0  0  0  0  0
   -0.3376   -0.5733   -0.1601 C   0  0  0  0  0  0  0  0  0  0  0  0
    0.4104    0.4404   -0.5447 C   0  0  0  0  0  0  0  0  0  0  0  0
    1.0377    1.4274    0.3950 C   0  0  0  0  0  0  0  0  0  0  0  0
   -2.2119   -1.1931    0.2852 H   0  0  0  0  0  0  0  0  0  0  0  0
   -1.0182   -2.4926    0.5080 H   0  0  0  0  0  0  0  0  0  0  0  0
    0.6090    0.5592   -1.6058 H   0  0  0  0  0  0  0  0  0  0  0  0
    0.7678    1.2123    1.4284 H   0  0  0  0  0  0  0  0  0  0  0  0
    0.7175    2.4461    0.1588 H   0  0  0  0  0  0  0  0  0  0  0  0
    2.1277    1.4082    0.3146 H   0  0  0  0  0  0  0  0  0  0  0  0
  1  2  2  0
  1  5  1  0
  1  6  1  0
  2  3  2  0
  3  4  1  0
  3  7  1  0
  4  8  1  0
  4  9  1  0
  4 10  1  0
M  END
>  <reaction>  (1) 
rmg_rxn_13992

>  <type>  (1) 
r1h

>  <mol_properties>  (1) 
{"0": {"label": "donator", "atom_type": "Cd"}, "4": {"label": "d_hydrogen", "atom_type": "H0"}}

>  <electro_map>  (1) 
{"4": {"R": null, "A": null, "D": null}, "0": {"R": 1.0797131216539495, "A": null, "D": null}, "1": {"R": 1.2752881322924265, "A": 118.25003051762229, "D": null}, "2": {"R": 1.317186164176508, "A": 145.67804393251424, "D": 181.20156486178317}, "3": {"R": 1.5002175014480403, "A": 124.11772643910105, "D": 83.35050570350707}, "5": {"R": 4.4278315132568045, "A": 40.482619906186386, "D": 11.950118330717723}, "6": {"R": 4.053335328185277, "A": 29.972768356478227, "D": 6.388614965425812}, "7": {"R": 3.1077692687651153, "A": 70.70460537690444, "D": 357.51511213376415}, "8": {"R": 1.7710677122701783, "A": 56.29432610279734, "D": 206.35134793391828}, "9": {"R": 1.7578897416840018, "A": 60.156846392231266, "D": 292.20721670965116}}

$$$$

     RDKit          3D

 14 14  0  0  0  0  0  0  0  0999 V2000
    1.0085   -1.5310    0.2806 H   0  0  0  0  0  0  0  0  0  0  0  0
   -0.0403   -1.2574    0.3722 C   0  0  0  0  0  0  0  0  0  0  0  0
   -0.1302   -0.2768    1.3287 O   0  0  0  0  0  0  0  0  0  0  0  0
    0.5089    0.9360    0.9469 C   0  0  0  0  0  0  0  0  0  0  0  0
   -0.0032    1.3982   -0.4071 C   0  0  0  0  0  0  0  0  0  0  0  0
    0.1256    0.2522   -1.3967 C   0  0  0  0  0  0  0  0  0  0  0  0
   -0.4949   -0.9187   -0.8774 O   0  0  0  0  0  0  0  0  0  0  0  0
   -0.5580   -2.1495    0.7177 H   0  0  0  0  0  0  0  0  0  0  0  0
    0.2866    1.6547    1.7337 H   0  0  0  0  0  0  0  0  0  0  0  0
    1.5925    0.7754    0.9130 H   0  0  0  0  0  0  0  0  0  0  0  0
   -1.0506    1.6950   -0.3225 H   0  0  0  0  0  0  0  0  0  0  0  0
    0.5711    2.2603   -0.7525 H   0  0  0  0  0  0  0  0  0  0  0  0
    1.1807    0.0383   -1.6015 H   0  0  0  0  0  0  0  0  0  0  0  0
   -0.3770    0.4679   -2.3379 H   0  0  0  0  0  0  0  0  0  0  0  0
  1  2  1  0
  2  3  1  0
  2  7  1  0
  2  8  1  0
  3  4  1  0
  4  5  1  0
  4  9  1  0
  4 10  1  0
  5  6  1  0
  5 11  1  0
  5 12  1  0
  6  7  1  0
  6 13  1  0
  6 14  1  0
M  END
>  <reaction>  (2) 
rmg_rxn_13992

>  <type>  (2) 
r2h

>  <mol_properties>  (2) 
{"0": {"label": "a_hydrogen", "atom_type": "H0"}, "1": {"label": "acceptor", "atom_type": "Cs"}}

>  <electro_map>  (2) 
{"0": {"R": null, "A": null, "D": null}, "1": {"R": 1.0877448211981504, "A": null, "D": null}, "2": {"R": 1.3728103976686228, "A": 107.5441169683849, "D": null}, "6": {"R": 2.326405242052692, "A": 54.33342885389681, "D": 325.78101171373106}, "3": {"R": 2.7885409169320168, "A": 30.64251857950771, "D": 228.80229815171666}, "5": {"R": 2.471273749878467, "A": 30.646051244083996, "D": 179.7949823806383}, "4": {"R": 1.5196285265697826, "A": 35.59685546385276, "D": 131.7575193518122}, "7": {"R": 3.762856886657117, "A": 59.743529765307635, "D": 324.5177630934355}, "8": {"R": 4.027109311344501, "A": 32.205870666924184, "D": 159.99742618776855}, "9": {"R": 1.7754068069643796, "A": 64.520613270772, "D": 287.38086325397103}, "10": {"R": 3.059124078484473, "A": 53.294803370851994, "D": 69.26224392592145}, "11": {"R": 1.7704114598411411, "A": 53.31624773595262, "D": 114.91379457173953}, "12": {"R": 2.455585679156694, "A": 91.28557960532153, "D": 65.42235611022598}, "13": {"R": 1.7757312880073528, "A": 72.94422047029782, "D": 49.63734466933936}}

$$$$

     RDKit          3D

 23 22  0  0  0  0  0  0  0  0999 V2000
    1.1343   -1.7616    0.1947 C   0  0  0  0  0  0  0  0  0  0  0  0
    1.9657   -0.8710   -0.1821 C   0  0  0  0  0  0  0  0  0  0  0  0
    2.7137    0.1427   -0.5667 C   0  0  0  0  0  3  0  0  0  0  0  0
    3.3410    1.1297    0.3730 C   0  0  0  0  0  0  0  0  0  0  0  0
   -0.2048   -1.4138    0.2827 H   0  0  0  0  0  0  0  0  0  0  0  0
    1.2851   -2.7903    0.4860 H   0  0  0  0  0  0  0  0  0  0  0  0
    2.9123    0.2615   -1.6278 H   0  0  0  0  0  0  0  0  0  0  0  0
    3.0711    0.9146    1.4064 H   0  0  0  0  0  0  0  0  0  0  0  0
    3.0208    2.1484    0.1368 H   0  0  0  0  0  0  0  0  0  0  0  0
    4.4310    1.1105    0.2925 H   0  0  0  0  0  0  0  0  0  0  0  0
   -1.4832   -1.0804    0.3943 C   0  0  0  0  0  0  0  0  0  0  0  0
   -1.5731   -0.0998    1.3508 O   0  0  0  0  0  0  0  0  0  0  0  0
   -0.9340    1.1130    0.9690 C   0  0  0  0  0  0  0  0  0  0  0  0
   -1.4461    1.5752   -0.3850 C   0  0  0  0  0  0  0  0  0  0  0  0
   -1.3173    0.4292   -1.3746 C   0  0  0  0  0  0  0  0  0  0  0  0
   -1.9378   -0.7417   -0.8553 O   0  0  0  0  0  0  0  0  0  0  0  0
   -2.0009   -1.9725    0.7398 H   0  0  0  0  0  0  0  0  0  0  0  0
   -1.1563    1.8317    1.7558 H   0  0  0  0  0  0  0  0  0  0  0  0
    0.1496    0.9524    0.9351 H   0  0  0  0  0  0  0  0  0  0  0  0
   -2.4935    1.8720   -0.3004 H   0  0  0  0  0  0  0  0  0  0  0  0
   -0.8718    2.4373   -0.7303 H   0  0  0  0  0  0  0  0  0  0  0  0
   -0.2622    0.2153   -1.5794 H   0  0  0  0  0  0  0  0  0  0  0  0
   -1.8199    0.6449   -2.3158 H   0  0  0  0  0  0  0  0  0  0  0  0
  1  2  3  0
  1  6  1  0
  2  3  1  0
  3  4  1  0
  3  7  1  0
  4  8  1  0
  4  9  1  0
  4 10  1  0
  5 11  1  0
 11 12  1  0
 11 16  1  0
 11 17  1  0
 12 13  1  0
 13 14  1  0
 13 18  1  0
 13 19  1  0
 14 15  1  0
 14 20  1  0
 14 21  1  0
 15 16  1  0
 15 22  1  0
 15 23  1  0
M  RAD  1   3   2
M  END
>  <reaction>  (3) 
rmg_rxn_13992

>  <type>  (3) 
ts

>  <mol_properties>  (3) 
{"0": {"label": "*3", "atom_type": "Ct"}, "1": {"label": "*4", "atom_type": "Ct"}, "4": {"label": "*2", "atom_type": "H0"}, "10": {"label": "*1", "atom_type": "Cs"}, "11": {"label": "*0", "atom_type": "O2s"}}

$$$$
