
     RDKit          3D

  9  8  0  0  0  0  0  0  0  0999 V2000
    0.5752   -1.0770    0.3100 C   0  0  0  0  0  0  0  0  0  0  0  0
    0.3976    0.1512   -0.1162 C   0  0  0  0  0  0  0  0  0  0  0  0
   -0.9176    0.8741   -0.1833 C   0  0  0  0  0  0  0  0  0  0  0  0
    1.6097   -1.3990    0.2708 H   0  0  0  0  0  0  0  0  0  0  0  0
   -0.1463   -1.7938    0.6855 H   0  0  0  0  0  0  0  0  0  0  0  0
    1.2700    0.7111   -0.4535 H   0  0  0  0  0  0  0  0  0  0  0  0
   -1.7371    0.2480    0.1695 H   0  0  0  0  0  0  0  0  0  0  0  0
   -1.1332    1.1820   -1.2093 H   0  0  0  0  0  0  0  0  0  0  0  0
   -0.8871    1.7809    0.4258 H   0  0  0  0  0  0  0  0  0  0  0  0
  1  2  2  3
  1  4  1  0
  1  5  1  0
  2  3  1  0
  2  6  1  0
  3  7  1  0
  3  8  1  0
  3  9  1  0
M  END
>  <reaction>  (1) 
rmg_rxn_14185

>  <type>  (1) 
r1h

>  <mol_properties>  (1) 
{"0": {"label": "donator", "atom_type": "Cd"}, "3": {"label": "d_hydrogen", "atom_type": "H0"}}

>  <electro_map>  (1) 
{"3": {"R": null, "A": null, "D": null}, "0": {"R": 1.0841447041481458, "A": null, "D": null}, "1": {"R": 1.3121326931661306, "A": 113.29553298659673, "D": null}, "2": {"R": 1.5022518421453188, "A": 155.4627237974805, "D": 359.8965655571725}, "4": {"R": 2.9099040696629697, "A": 46.63972887253687, "D": 0.04225552524720169}, "5": {"R": 3.094810227105513, "A": 43.05790036482804, "D": 0.05768183140023108}, "6": {"R": 3.1057128810290315, "A": 50.38493234501426, "D": 359.9504230166675}, "7": {"R": 1.771470512495719, "A": 55.61098771800505, "D": 216.79387739684114}, "8": {"R": 1.7586248258660702, "A": 60.23651076572308, "D": 293.02515627649194}}

$$$$

     RDKit          3D

 10  9  0  0  0  0  0  0  0  0999 V2000
   -1.9667   -1.3422    0.3557 H   0  0  0  0  0  0  0  0  0  0  0  0
    0.9793    1.6023    0.3267 C   0  0  0  0  0  0  0  0  0  0  0  0
    0.3383    0.5654   -0.1221 C   0  0  0  0  0  0  0  0  0  0  0  0
   -0.3008   -0.4837   -0.5676 C   0  0  0  0  0  0  0  0  0  0  0  0
   -0.8972   -1.5306    0.2847 C   0  0  0  0  0  0  0  0  0  0  0  0
    2.0559    1.5862    0.4568 H   0  0  0  0  0  0  0  0  0  0  0  0
    0.4575    2.5172    0.5855 H   0  0  0  0  0  0  0  0  0  0  0  0
   -0.4397   -0.5709   -1.6419 H   0  0  0  0  0  0  0  0  0  0  0  0
   -0.5450   -1.5140    1.3136 H   0  0  0  0  0  0  0  0  0  0  0  0
   -0.8362   -2.5288   -0.1461 H   0  0  0  0  0  0  0  0  0  0  0  0
  1  5  1  0
  2  3  2  0
  2  6  1  0
  2  7  1  0
  3  4  2  0
  4  5  1  0
  4  8  1  0
  5  9  1  0
  5 10  1  0
M  END
>  <reaction>  (2) 
rmg_rxn_14185

>  <type>  (2) 
r2h

>  <mol_properties>  (2) 
{"0": {"label": "a_hydrogen", "atom_type": "H0"}, "4": {"label": "acceptor", "atom_type": "Cs"}}

>  <electro_map>  (2) 
{"0": {"R": null, "A": null, "D": null}, "4": {"R": 1.088309024366002, "A": null, "D": null}, "3": {"R": 1.4758111566004266, "A": 108.18287445897866, "D": null}, "2": {"R": 1.3067165289986207, "A": 124.69658705973639, "D": 259.2924002549035}, "1": {"R": 1.0, "A": 90.0, "D": 180.0}, "5": {"R": 1.2990456305778817, "A": 90.0, "D": 180.0}, "6": {"R": 1.0844890347634764, "A": 121.12874090176199, "D": 92.2434834828794}, "7": {"R": 1.8542711107076562, "A": 31.259657802025814, "D": 180.00042584308952}, "8": {"R": 3.911860472845215, "A": 76.22031810952114, "D": 345.4719459687178}, "9": {"R": 3.1041152403665806, "A": 72.87263085350097, "D": 82.10926886548033}}

$$$$

     RDKit          3D

 18 16  0  0  0  0  0  0  0  0999 V2000
   -1.7581   -0.9779    0.3758 C   0  0  0  0  0  3  0  0  0  0  0  0
   -1.9357    0.2503   -0.0503 C   0  0  0  0  0  0  0  0  0  0  0  0
   -3.2509    0.9732   -0.1175 C   0  0  0  0  0  0  0  0  0  0  0  0
   -0.3568   -1.4141    0.3228 H   0  0  0  0  0  0  0  0  0  0  0  0
   -2.4796   -1.6947    0.7514 H   0  0  0  0  0  0  0  0  0  0  0  0
   -1.0633    0.8102   -0.3877 H   0  0  0  0  0  0  0  0  0  0  0  0
   -4.0705    0.3471    0.2353 H   0  0  0  0  0  0  0  0  0  0  0  0
   -3.4666    1.2811   -1.1435 H   0  0  0  0  0  0  0  0  0  0  0  0
   -3.2204    1.8799    0.4916 H   0  0  0  0  0  0  0  0  0  0  0  0
    2.7402    1.5038    0.2838 C   0  0  0  0  0  0  0  0  0  0  0  0
    2.0992    0.4668   -0.1650 C   0  0  0  0  0  0  0  0  0  0  0  0
    1.4600   -0.5822   -0.6105 C   0  0  0  0  0  0  0  0  0  0  0  0
    0.8636   -1.6291    0.2418 C   0  0  0  0  0  0  0  0  0  0  0  0
    3.8167    1.4876    0.4139 H   0  0  0  0  0  0  0  0  0  0  0  0
    2.2183    2.4187    0.5425 H   0  0  0  0  0  0  0  0  0  0  0  0
    1.3211   -0.6695   -1.6848 H   0  0  0  0  0  0  0  0  0  0  0  0
    1.2159   -1.6126    1.2707 H   0  0  0  0  0  0  0  0  0  0  0  0
    0.9246   -2.6273   -0.1890 H   0  0  0  0  0  0  0  0  0  0  0  0
  1  2  2  3
  1  5  1  0
  2  3  1  0
  2  6  1  0
  3  7  1  0
  3  8  1  0
  3  9  1  0
  4 13  1  0
 10 11  2  0
 10 14  1  0
 10 15  1  0
 11 12  2  0
 12 13  1  0
 12 16  1  0
 13 17  1  0
 13 18  1  0
M  RAD  1   1   2
M  END
>  <reaction>  (3) 
rmg_rxn_14185

>  <type>  (3) 
ts

>  <mol_properties>  (3) 
{"0": {"label": "*3", "atom_type": "Cd"}, "1": {"label": "*4", "atom_type": "Cd"}, "3": {"label": "*2", "atom_type": "H0"}, "11": {"label": "*0", "atom_type": "Cd"}, "12": {"label": "*1", "atom_type": "Cs"}}

$$$$
