
     RDKit          3D

 13 12  0  0  0  0  0  0  0  0999 V2000
    1.6485    0.4239   -0.2437 N   0  0  0  0  0  2  0  0  0  0  0  0
    0.7509    0.8128    0.6154 N   0  0  0  0  0  0  0  0  0  0  0  0
   -0.4124    0.2705    0.8688 C   0  0  0  0  0  3  0  0  0  0  0  0
   -0.8527   -0.9459    0.1376 C   0  0  0  0  0  0  0  0  0  0  0  0
   -1.2617   -0.6675   -1.3137 C   0  0  0  0  0  0  0  0  0  0  0  0
    2.4177    1.1043   -0.0794 H   0  0  0  0  0  0  0  0  0  0  0  0
    0.9828    1.6609    1.1484 H   0  0  0  0  0  0  0  0  0  0  0  0
   -1.0121    0.7717    1.6130 H   0  0  0  0  0  0  0  0  0  0  0  0
   -1.6834   -1.4022    0.6785 H   0  0  0  0  0  0  0  0  0  0  0  0
   -0.0258   -1.6655    0.1357 H   0  0  0  0  0  0  0  0  0  0  0  0
   -0.4328   -0.2161   -1.8598 H   0  0  0  0  0  0  0  0  0  0  0  0
   -2.1152    0.0115   -1.3549 H   0  0  0  0  0  0  0  0  0  0  0  0
   -1.5381   -1.5940   -1.8195 H   0  0  0  0  0  0  0  0  0  0  0  0
  1  2  1  0
  1  6  1  0
  2  3  1  0
  2  7  1  0
  3  4  1  0
  3  8  1  0
  4  5  1  0
  4  9  1  0
  4 10  1  0
  5 11  1  0
  5 12  1  0
  5 13  1  0
M  CHG  2   1  -1   3   1
M  END
>  <reaction>  (1) 
rmg_rxn_2543

>  <type>  (1) 
r1h

>  <mol_properties>  (1) 
{"0": {"label": "donator", "atom_type": "N1sc"}, "5": {"label": "d_hydrogen", "atom_type": "H0"}}

>  <electro_map>  (1) 
{"5": {"R": null, "A": null, "D": null}, "0": {"R": 1.040000033653699, "A": null, "D": null}, "1": {"R": 1.3019139395836243, "A": 102.13290623042239, "D": null}, "2": {"R": 1.3082937779288606, "A": 161.77964957882313, "D": 6.7094626048478645}, "3": {"R": 1.4859506375828113, "A": 120.49989647113532, "D": 0.12752791392566457}, "4": {"R": 1.5332835959923186, "A": 113.33603183956261, "D": 286.3301713663076}, "6": {"R": 4.064606575220796, "A": 51.930472365522014, "D": 18.29022811020618}, "7": {"R": 2.232982601789866, "A": 53.4572528877982, "D": 309.00268184663327}, "8": {"R": 2.459602114746654, "A": 121.11168447957508, "D": 32.59951890054031}, "9": {"R": 1.7639242437362157, "A": 89.5636883399184, "D": 11.080789265640531}, "10": {"R": 2.4995875018272056, "A": 90.35059873979172, "D": 279.47868209291073}, "11": {"R": 1.7712608120627988, "A": 90.09126985587159, "D": 358.19829435989755}, "12": {"R": 1.7682394065803886, "A": 59.89341331583154, "D": 295.24967913863617}}

$$$$

     RDKit          3D

 15 14  0  0  0  0  0  0  0  0999 V2000
    0.9611   -2.5135   -0.5944 H   0  0  0  0  0  0  0  0  0  0  0  0
    1.4937   -1.6478   -0.2008 C   0  0  0  0  0  0  0  0  0  0  0  0
    0.5308   -0.7688    0.2687 O   0  0  0  0  0  0  0  0  0  0  0  0
   -0.1166   -0.0304   -0.7599 C   0  0  0  0  0  0  0  0  0  0  0  0
   -1.2487    0.7734   -0.1592 C   0  0  0  0  0  0  0  0  0  0  0  0
   -0.7857    1.8050    0.8607 C   0  0  0  0  0  0  0  0  0  0  0  0
    2.1011   -2.0028    0.6281 H   0  0  0  0  0  0  0  0  0  0  0  0
    2.0780   -1.2540   -1.0360 H   0  0  0  0  0  0  0  0  0  0  0  0
   -0.4907   -0.7254   -1.5205 H   0  0  0  0  0  0  0  0  0  0  0  0
    0.6197    0.6301   -1.2357 H   0  0  0  0  0  0  0  0  0  0  0  0
   -1.9657    0.0846    0.2976 H   0  0  0  0  0  0  0  0  0  0  0  0
   -1.7749    1.2656   -0.9813 H   0  0  0  0  0  0  0  0  0  0  0  0
   -1.6311    2.3668    1.2595 H   0  0  0  0  0  0  0  0  0  0  0  0
   -0.2719    1.3266    1.6947 H   0  0  0  0  0  0  0  0  0  0  0  0
   -0.0940    2.5179    0.4060 H   0  0  0  0  0  0  0  0  0  0  0  0
  1  2  1  0
  2  3  1  0
  2  7  1  0
  2  8  1  0
  3  4  1  0
  4  5  1  0
  4  9  1  0
  4 10  1  0
  5  6  1  0
  5 11  1  0
  5 12  1  0
  6 13  1  0
  6 14  1  0
  6 15  1  0
M  END
>  <reaction>  (2) 
rmg_rxn_2543

>  <type>  (2) 
r2h

>  <mol_properties>  (2) 
{"0": {"label": "a_hydrogen", "atom_type": "H0"}, "1": {"label": "acceptor", "atom_type": "Cs"}}

>  <electro_map>  (2) 
{"0": {"R": null, "A": null, "D": null}, "1": {"R": 1.0899214631405854, "A": null, "D": null}, "2": {"R": 1.3857544030799678, "A": 106.64980521966199, "D": null}, "3": {"R": 1.4221302683644577, "A": 103.85860478977693, "D": 112.73831023704888}, "4": {"R": 1.5128993271730828, "A": 109.22948373448438, "D": 173.53803449381576}, "5": {"R": 1.5227816221354193, "A": 113.47187911296427, "D": 62.31695147315135}, "6": {"R": 4.784017721698305, "A": 67.1542476932702, "D": 330.976996988344}, "7": {"R": 1.8249408999763177, "A": 73.14836356856154, "D": 59.38223836113584}, "8": {"R": 2.666914679994445, "A": 105.02180217136946, "D": 315.12051431422833}, "9": {"R": 1.775190453318626, "A": 61.29723605222045, "D": 109.55838261069873}, "10": {"R": 3.054914305089095, "A": 54.184678700991824, "D": 235.0445319835543}, "11": {"R": 1.7511215022319906, "A": 54.60971352494867, "D": 258.9222666122375}, "12": {"R": 2.5009179337439327, "A": 69.44301208770739, "D": 261.02481602862906}, "13": {"R": 1.7660535444218945, "A": 90.3272891554801, "D": 58.350218901562094}, "14": {"R": 1.7640231808114613, "A": 59.98652402634778, "D": 66.26085896847073}}

$$$$

     RDKit          3D

 27 25  0  0  0  0  0  0  0  0999 V2000
    0.8211   -1.6143   -0.5986 N   0  0  0  0  0  2  0  0  0  0  0  0
   -0.0765   -1.2254    0.2605 N   0  0  0  0  0  0  0  0  0  0  0  0
   -1.2398   -1.7677    0.5139 C   0  0  0  0  0  3  0  0  0  0  0  0
   -1.6801   -2.9841   -0.2173 C   0  0  0  0  0  0  0  0  0  0  0  0
   -2.0891   -2.7057   -1.6685 C   0  0  0  0  0  0  0  0  0  0  0  0
    1.7447   -0.7973   -0.4013 H   0  0  0  0  0  0  0  0  0  0  0  0
    0.1555   -0.3773    0.7936 H   0  0  0  0  0  0  0  0  0  0  0  0
   -1.8395   -1.2665    1.2581 H   0  0  0  0  0  0  0  0  0  0  0  0
   -2.5108   -3.4404    0.3236 H   0  0  0  0  0  0  0  0  0  0  0  0
   -0.8532   -3.7036   -0.2192 H   0  0  0  0  0  0  0  0  0  0  0  0
   -1.2602   -2.2543   -2.2147 H   0  0  0  0  0  0  0  0  0  0  0  0
   -2.9426   -2.0267   -1.7097 H   0  0  0  0  0  0  0  0  0  0  0  0
   -2.3655   -3.6322   -2.1744 H   0  0  0  0  0  0  0  0  0  0  0  0
    2.4077    0.2801    0.0886 C   0  0  0  0  0  3  0  0  0  0  0  0
    1.4447    1.1591    0.5581 O   0  0  0  0  0  0  0  0  0  0  0  0
    0.7974    1.8975   -0.4706 C   0  0  0  0  0  0  0  0  0  0  0  0
   -0.3348    2.7014    0.1301 C   0  0  0  0  0  0  0  0  0  0  0  0
    0.1283    3.7329    1.1501 C   0  0  0  0  0  0  0  0  0  0  0  0
    3.0150   -0.0749    0.9174 H   0  0  0  0  0  0  0  0  0  0  0  0
    2.9919    0.6739   -0.7466 H   0  0  0  0  0  0  0  0  0  0  0  0
    0.4232    1.2026   -1.2311 H   0  0  0  0  0  0  0  0  0  0  0  0
    1.5336    2.5580   -0.9464 H   0  0  0  0  0  0  0  0  0  0  0  0
   -1.0518    2.0126    0.5869 H   0  0  0  0  0  0  0  0  0  0  0  0
   -0.8610    3.1935   -0.6919 H   0  0  0  0  0  0  0  0  0  0  0  0
   -0.7172    4.2947    1.5489 H   0  0  0  0  0  0  0  0  0  0  0  0
    0.6421    3.2546    1.9841 H   0  0  0  0  0  0  0  0  0  0  0  0
    0.8199    4.4459    0.6953 H   0  0  0  0  0  0  0  0  0  0  0  0
  1  2  1  0
  1  6  1  0
  2  3  1  0
  2  7  1  0
  3  4  1  0
  3  8  1  0
  4  5  1  0
  4  9  1  0
  4 10  1  0
  5 11  1  0
  5 12  1  0
  5 13  1  0
 14 15  1  0
 14 19  1  0
 14 20  1  0
 15 16  1  0
 16 17  1  0
 16 21  1  0
 16 22  1  0
 17 18  1  0
 17 23  1  0
 17 24  1  0
 18 25  1  0
 18 26  1  0
 18 27  1  0
M  CHG  2   1  -1   3   1
M  RAD  1  14   2
M  END
>  <reaction>  (3) 
rmg_rxn_2543

>  <type>  (3) 
ts

>  <mol_properties>  (3) 
{"0": {"label": "*1", "atom_type": "N1sc"}, "1": {"label": "*0", "atom_type": "N3s"}, "5": {"label": "*2", "atom_type": "H0"}, "13": {"label": "*3", "atom_type": "Cs"}, "14": {"label": "*4", "atom_type": "O2s"}}

$$$$
