
     RDKit          3D

 10  9  0  0  0  0  0  0  0  0999 V2000
    0.1876   -0.8874   -1.6780 C   0  0  0  0  0  0  0  0  0  0  0  0
    0.2716   -0.3718   -0.4879 C   0  0  0  0  0  0  0  0  0  0  0  0
    0.3443    0.1522    0.7113 C   0  0  0  0  0  0  0  0  0  0  0  0
   -0.6685    1.0167    1.3141 C   0  0  0  0  0  0  0  0  0  0  0  0
    0.6234   -0.3959   -2.5417 H   0  0  0  0  0  0  0  0  0  0  0  0
   -0.3198   -1.8323   -1.8478 H   0  0  0  0  0  0  0  0  0  0  0  0
    1.1975   -0.1262    1.3243 H   0  0  0  0  0  0  0  0  0  0  0  0
   -1.2961    0.3868    1.9401 H   0  0  0  0  0  0  0  0  0  0  0  0
   -1.3744    1.4580    0.6150 H   0  0  0  0  0  0  0  0  0  0  0  0
   -0.2837    1.7393    2.0301 H   0  0  0  0  0  0  0  0  0  0  0  0
  1  2  2  0
  1  5  1  0
  1  6  1  0
  2  3  2  0
  3  4  1  0
  3  7  1  0
  4  8  1  0
  4  9  1  0
  4 10  1  0
M  END
>  <reaction>  (1) 
rmg_rxn_14138

>  <type>  (1) 
r1h

>  <mol_properties>  (1) 
{"3": {"label": "donator", "atom_type": "Cs"}, "7": {"label": "d_hydrogen", "atom_type": "H0"}}

>  <electro_map>  (1) 
{"7": {"R": null, "A": null, "D": null}, "3": {"R": 1.087371537963113, "A": null, "D": null}, "2": {"R": 1.4616721850776386, "A": 107.14457712708943, "D": null}, "1": {"R": 1.310789901553878, "A": 123.11194186576473, "D": 255.82069764524692}, "0": {"R": 1.0, "A": 90.0, "D": 180.0}, "4": {"R": 1.2996589928646936, "A": 90.0, "D": 180.0}, "5": {"R": 1.0851556721652136, "A": 121.60304026306908, "D": 93.21689910351597}, "6": {"R": 1.8532403996835287, "A": 31.40527848829187, "D": 179.76342689678626}, "8": {"R": 3.9084439639529633, "A": 76.58201366338807, "D": 345.36847762545364}, "9": {"R": 3.102826915303689, "A": 73.47345619517709, "D": 82.26588856537357}}

$$$$

     RDKit          3D

 18 17  0  0  0  0  0  0  0  0999 V2000
    0.0433    1.6365   -0.2741 H   0  0  0  0  0  0  0  0  0  0  0  0
    1.4916    0.8329    1.8799 C   0  0  0  0  0  0  0  0  0  0  0  0
   -0.0143    1.0219    1.7315 C   0  0  0  0  0  0  0  0  0  0  0  0
   -0.4996    0.8879    0.3155 C   0  0  0  0  0  0  0  0  0  0  0  0
   -0.1619   -0.3241   -0.2356 O   0  0  0  0  0  0  0  0  0  0  0  0
   -0.7491   -0.5758   -1.4977 C   0  0  0  0  0  0  0  0  0  0  0  0
   -0.1082   -1.8070   -2.0904 C   0  0  0  0  0  0  0  0  0  0  0  0
    2.0385    1.5920    1.3174 H   0  0  0  0  0  0  0  0  0  0  0  0
    1.7903    0.9108    2.9260 H   0  0  0  0  0  0  0  0  0  0  0  0
    1.7975   -0.1450    1.5087 H   0  0  0  0  0  0  0  0  0  0  0  0
   -0.5389    0.2916    2.3588 H   0  0  0  0  0  0  0  0  0  0  0  0
   -0.3078    2.0113    2.0921 H   0  0  0  0  0  0  0  0  0  0  0  0
   -1.5552    1.1471    0.1700 H   0  0  0  0  0  0  0  0  0  0  0  0
   -1.8312   -0.7141   -1.3715 H   0  0  0  0  0  0  0  0  0  0  0  0
   -0.5944    0.2877   -2.1542 H   0  0  0  0  0  0  0  0  0  0  0  0
   -0.2429   -2.6675   -1.4341 H   0  0  0  0  0  0  0  0  0  0  0  0
   -0.5587   -2.0358   -3.0576 H   0  0  0  0  0  0  0  0  0  0  0  0
    0.9607   -1.6415   -2.2320 H   0  0  0  0  0  0  0  0  0  0  0  0
  1  4  1  0
  2  3  1  0
  2  8  1  0
  2  9  1  0
  2 10  1  0
  3  4  1  0
  3 11  1  0
  3 12  1  0
  4  5  1  0
  4 13  1  0
  5  6  1  0
  6  7  1  0
  6 14  1  0
  6 15  1  0
  7 16  1  0
  7 17  1  0
  7 18  1  0
M  END
>  <reaction>  (2) 
rmg_rxn_14138

>  <type>  (2) 
r2h

>  <mol_properties>  (2) 
{"0": {"label": "a_hydrogen", "atom_type": "H0"}, "3": {"label": "acceptor", "atom_type": "Cs"}}

>  <electro_map>  (2) 
{"0": {"R": null, "A": null, "D": null}, "3": {"R": 1.0966968619954174, "A": null, "D": null}, "4": {"R": 1.3735550310451075, "A": 105.36157034403097, "D": null}, "5": {"R": 1.4146302490244855, "A": 101.69578402638568, "D": 117.41731176340309}, "2": {"R": 3.6770432481751145, "A": 19.297832531436967, "D": 350.56014290791694}, "1": {"R": 1.5250015446389302, "A": 103.23583940326387, "D": 36.49728896693699}, "6": {"R": 5.029128675888843, "A": 70.97840939614174, "D": 351.5770028740889}, "7": {"R": 5.270131884956853, "A": 11.870779429261097, "D": 109.93212843291039}, "8": {"R": 1.7644775848348553, "A": 106.45334414490618, "D": 8.378073813993275}, "9": {"R": 1.767399056990526, "A": 59.92882056750088, "D": 23.65111022948345}, "10": {"R": 2.5243602282098285, "A": 67.84196557560442, "D": 256.91445433983733}, "11": {"R": 1.7555835070108459, "A": 89.79253987674439, "D": 59.91865525356963}, "12": {"R": 2.448966419418098, "A": 72.92928273684024, "D": 98.72692332396032}, "13": {"R": 2.432412339892183, "A": 145.61162740262617, "D": 322.08938795273474}, "14": {"R": 1.7735810074089893, "A": 76.60599821919706, "D": 271.7737205907955}, "15": {"R": 3.061890677734903, "A": 55.327840308335546, "D": 123.76417319456623}, "16": {"R": 1.770433343330115, "A": 54.51542661718798, "D": 103.08088725800147}, "17": {"R": 1.7735810074089893, "A": 59.97823478203671, "D": 65.06949552812227}}

$$$$

     RDKit          3D

 27 25  0  0  0  0  0  0  0  0999 V2000
    1.1813    0.0654   -3.1963 C   0  0  0  0  0  0  0  0  0  0  0  0
    1.2653    0.5810   -2.0063 C   0  0  0  0  0  0  0  0  0  0  0  0
    1.3380    1.1050   -0.8070 C   0  0  0  0  0  0  0  0  0  0  0  0
    0.3252    1.9695   -0.2042 C   0  0  0  0  0  0  0  0  0  0  0  0
    1.6171    0.5570   -4.0600 H   0  0  0  0  0  0  0  0  0  0  0  0
    0.6739   -0.8795   -3.3662 H   0  0  0  0  0  0  0  0  0  0  0  0
    2.1912    0.8267   -0.1940 H   0  0  0  0  0  0  0  0  0  0  0  0
   -0.4554    1.1862    0.5744 H   0  0  0  0  0  0  0  0  0  0  0  0
   -0.3807    2.4108   -0.9033 H   0  0  0  0  0  0  0  0  0  0  0  0
    0.7100    2.6922    0.5117 H   0  0  0  0  0  0  0  0  0  0  0  0
    0.8591    0.1981    2.8737 C   0  0  0  0  0  0  0  0  0  0  0  0
   -0.6468    0.3871    2.7253 C   0  0  0  0  0  0  0  0  0  0  0  0
   -1.1320    0.2530    1.3093 C   0  0  0  0  0  3  0  0  0  0  0  0
   -0.7944   -0.9589    0.7582 O   0  0  0  0  0  0  0  0  0  0  0  0
   -1.3816   -1.2107   -0.5039 C   0  0  0  0  0  0  0  0  0  0  0  0
   -0.7407   -2.4418   -1.0966 C   0  0  0  0  0  0  0  0  0  0  0  0
    1.4060    0.9572    2.3112 H   0  0  0  0  0  0  0  0  0  0  0  0
    1.1578    0.2760    3.9198 H   0  0  0  0  0  0  0  0  0  0  0  0
    1.1650   -0.7798    2.5024 H   0  0  0  0  0  0  0  0  0  0  0  0
   -1.1714   -0.3433    3.3526 H   0  0  0  0  0  0  0  0  0  0  0  0
   -0.9403    1.3765    3.0859 H   0  0  0  0  0  0  0  0  0  0  0  0
   -2.1877    0.5122    1.1638 H   0  0  0  0  0  0  0  0  0  0  0  0
   -2.4636   -1.3490   -0.3777 H   0  0  0  0  0  0  0  0  0  0  0  0
   -1.2269   -0.3471   -1.1604 H   0  0  0  0  0  0  0  0  0  0  0  0
   -0.8754   -3.3023   -0.4403 H   0  0  0  0  0  0  0  0  0  0  0  0
   -1.1912   -2.6707   -2.0638 H   0  0  0  0  0  0  0  0  0  0  0  0
    0.3282   -2.2764   -1.2383 H   0  0  0  0  0  0  0  0  0  0  0  0
  1  2  2  0
  1  5  1  0
  1  6  1  0
  2  3  2  0
  3  4  1  0
  3  7  1  0
  4  8  1  0
  4  9  1  0
  4 10  1  0
 11 12  1  0
 11 17  1  0
 11 18  1  0
 11 19  1  0
 12 13  1  0
 12 20  1  0
 12 21  1  0
 13 14  1  0
 13 22  1  0
 14 15  1  0
 15 16  1  0
 15 23  1  0
 15 24  1  0
 16 25  1  0
 16 26  1  0
 16 27  1  0
M  RAD  1  13   2
M  END
>  <reaction>  (3) 
rmg_rxn_14138

>  <type>  (3) 
ts

>  <mol_properties>  (3) 
{"2": {"label": "*0", "atom_type": "Cd"}, "3": {"label": "*1", "atom_type": "Cs"}, "7": {"label": "*2", "atom_type": "H0"}, "12": {"label": "*3", "atom_type": "Cs"}, "13": {"label": "*4", "atom_type": "O2s"}}

$$$$
