
     RDKit          3D

  9  8  0  0  0  0  0  0  0  0999 V2000
    0.9629    0.8496    1.1804 C   0  0  0  0  0  0  0  0  0  0  0  0
   -0.2225   -0.0107    0.8505 C   0  0  0  0  0  0  0  0  0  0  0  0
   -0.3457   -0.4369   -0.9123 S   0  0  0  0  0  0  0  0  0  0  0  0
    0.8406    1.7749    0.6186 H   0  0  0  0  0  0  0  0  0  0  0  0
    1.9193    0.4684    0.8263 H   0  0  0  0  0  0  0  0  0  0  0  0
    0.9944    1.1796    2.2189 H   0  0  0  0  0  0  0  0  0  0  0  0
   -1.1469    0.4609    1.1822 H   0  0  0  0  0  0  0  0  0  0  0  0
   -0.1436   -0.9732    1.3640 H   0  0  0  0  0  0  0  0  0  0  0  0
   -0.2934    0.8232   -1.3664 H   0  0  0  0  0  0  0  0  0  0  0  0
  1  2  1  0
  1  4  1  0
  1  5  1  0
  1  6  1  0
  2  3  1  0
  2  7  1  0
  2  8  1  0
  3  9  1  0
M  END
>  <reaction>  (1) 
rmg_rxn_2782

>  <type>  (1) 
r1h

>  <mol_properties>  (1) 
{"0": {"label": "donator", "atom_type": "Cs"}, "3": {"label": "d_hydrogen", "atom_type": "H0"}}

>  <electro_map>  (1) 
{"3": {"R": null, "A": null, "D": null}, "0": {"R": 1.0894070642581581, "A": null, "D": null}, "1": {"R": 1.50139243346737, "A": 106.54105627720254, "D": null}, "2": {"R": 1.8177279350149302, "A": 97.30580874276927, "D": 234.05158118612184}, "8": {"R": 1.340434842083789, "A": 96.05423207298065, "D": 306.1457969855878}, "4": {"R": 3.1352689249878756, "A": 71.5939619512336, "D": 45.08169032794417}, "5": {"R": 1.816684234020909, "A": 97.61342903148082, "D": 262.03667405930315}, "6": {"R": 2.485234046061335, "A": 90.32672321546478, "D": 28.888356043328624}, "7": {"R": 1.759583051992989, "A": 72.62209725909017, "D": 56.37567122688155}}

$$$$

     RDKit          3D

 14 13  0  0  0  0  0  0  0  0999 V2000
    2.4261   -0.6424   -0.4918 H   0  0  0  0  0  0  0  0  0  0  0  0
   -1.9687   -1.0563    1.2367 C   0  0  0  0  0  0  0  0  0  0  0  0
   -1.8548   -0.6230   -0.0077 C   0  0  0  0  0  0  0  0  0  0  0  0
   -0.6974    0.1425   -0.5558 C   0  0  0  0  0  0  0  0  0  0  0  0
    0.2798    0.3457    0.4365 O   0  0  0  0  0  0  0  0  0  0  0  0
    1.4679    0.9146   -0.0264 C   0  0  0  0  0  0  0  0  0  0  0  0
    2.1458    0.1539   -0.9489 O   0  0  0  0  0  0  0  0  0  0  0  0
   -2.8396   -1.6150    1.5537 H   0  0  0  0  0  0  0  0  0  0  0  0
   -1.1985   -0.8615    1.9718 H   0  0  0  0  0  0  0  0  0  0  0  0
   -2.6397   -0.8258   -0.7299 H   0  0  0  0  0  0  0  0  0  0  0  0
   -1.0445    1.1113   -0.9463 H   0  0  0  0  0  0  0  0  0  0  0  0
   -0.2740   -0.4097   -1.4036 H   0  0  0  0  0  0  0  0  0  0  0  0
    2.0606    1.1108    0.8726 H   0  0  0  0  0  0  0  0  0  0  0  0
    1.2740    1.8696   -0.5438 H   0  0  0  0  0  0  0  0  0  0  0  0
  1  7  1  0
  2  3  2  3
  2  8  1  0
  2  9  1  0
  3  4  1  0
  3 10  1  0
  4  5  1  0
  4 11  1  0
  4 12  1  0
  5  6  1  0
  6  7  1  0
  6 13  1  0
  6 14  1  0
M  END
>  <reaction>  (2) 
rmg_rxn_2782

>  <type>  (2) 
r2h

>  <mol_properties>  (2) 
{"0": {"label": "a_hydrogen", "atom_type": "H0"}, "6": {"label": "acceptor", "atom_type": "O2s"}}

>  <electro_map>  (2) 
{"0": {"R": null, "A": null, "D": null}, "6": {"R": 0.9599999607106042, "A": null, "D": null}, "5": {"R": 1.3745537814112416, "A": 106.46684122769732, "D": null}, "4": {"R": 1.3962094763302653, "A": 100.23546300565698, "D": 123.00231613370369}, "3": {"R": 1.4074341768420093, "A": 114.57608420665137, "D": 297.67708651361886}, "2": {"R": 1.4920045430929851, "A": 110.70876230952643, "D": 172.76473114210674}, "1": {"R": 1.3225518822543703, "A": 125.49355899317182, "D": 0.21188415189035123}, "7": {"R": 1.0821839372894042, "A": 120.93391744750247, "D": 180.60111191897232}, "8": {"R": 1.853608751118121, "A": 31.09525954356994, "D": 180.23931440972117}, "9": {"R": 3.062315020521584, "A": 52.34182785110486, "D": 0.18650475727886054}, "10": {"R": 2.5186815351926124, "A": 77.68424129034064, "D": 159.33313189678415}, "11": {"R": 1.7653158811866712, "A": 68.6545296389548, "D": 85.93505319143662}, "12": {"R": 3.5977702335024357, "A": 75.82587516305969, "D": 228.99165494737332}, "13": {"R": 1.7891114074152314, "A": 52.62999975562691, "D": 310.54083483128005}}

$$$$

     RDKit          3D

 22 20  0  0  0  0  0  0  0  0999 V2000
    1.7943   -0.7213    0.7577 C   0  0  0  0  0  0  0  0  0  0  0  0
    0.6089   -1.5816    0.4278 C   0  0  0  0  0  0  0  0  0  0  0  0
    0.4856   -2.0078   -1.3349 S   0  0  0  0  0  0  0  0  0  0  0  0
    1.6537    0.3418    0.1123 H   0  0  0  0  0  0  0  0  0  0  0  0
    2.7507   -1.1025    0.4037 H   0  0  0  0  0  0  0  0  0  0  0  0
    1.8258   -0.3913    1.7962 H   0  0  0  0  0  0  0  0  0  0  0  0
   -0.3155   -1.1100    0.7595 H   0  0  0  0  0  0  0  0  0  0  0  0
    0.6878   -2.5441    0.9413 H   0  0  0  0  0  0  0  0  0  0  0  0
    0.5380   -0.7477   -1.7891 H   0  0  0  0  0  0  0  0  0  0  0  0
   -2.8321    0.1866    1.6924 C   0  0  0  0  0  0  0  0  0  0  0  0
   -2.7182    0.6198    0.4480 C   0  0  0  0  0  0  0  0  0  0  0  0
   -1.5608    1.3853   -0.1002 C   0  0  0  0  0  0  0  0  0  0  0  0
   -0.5836    1.5885    0.8921 O   0  0  0  0  0  0  0  0  0  0  0  0
    0.6045    2.1575    0.4293 C   0  0  0  0  0  0  0  0  0  0  0  0
    1.2824    1.3968   -0.4933 O   0  0  0  0  0  1  0  0  0  0  0  0
   -3.7030   -0.3721    2.0093 H   0  0  0  0  0  0  0  0  0  0  0  0
   -2.0619    0.3813    2.4275 H   0  0  0  0  0  0  0  0  0  0  0  0
   -3.5031    0.4171   -0.2743 H   0  0  0  0  0  0  0  0  0  0  0  0
   -1.9079    2.3542   -0.4906 H   0  0  0  0  0  0  0  0  0  0  0  0
   -1.1374    0.8331   -0.9480 H   0  0  0  0  0  0  0  0  0  0  0  0
    1.1972    2.3536    1.3283 H   0  0  0  0  0  0  0  0  0  0  0  0
    0.4106    3.1125   -0.0882 H   0  0  0  0  0  0  0  0  0  0  0  0
  1  2  1  0
  1  4  1  0
  1  5  1  0
  1  6  1  0
  2  3  1  0
  2  7  1  0
  2  8  1  0
  3  9  1  0
 10 11  2  3
 10 16  1  0
 10 17  1  0
 11 12  1  0
 11 18  1  0
 12 13  1  0
 12 19  1  0
 12 20  1  0
 13 14  1  0
 14 15  1  0
 14 21  1  0
 14 22  1  0
M  RAD  1  15   2
M  END
>  <reaction>  (3) 
rmg_rxn_2782

>  <type>  (3) 
ts

>  <mol_properties>  (3) 
{"0": {"label": "*1", "atom_type": "Cs"}, "1": {"label": "*0", "atom_type": "Cs"}, "3": {"label": "*2", "atom_type": "H0"}, "13": {"label": "*4", "atom_type": "Cs"}, "14": {"label": "*3", "atom_type": "O2s"}}

$$$$
