
     RDKit          3D

  9  9  0  0  0  0  0  0  0  0999 V2000
   -1.2102   -0.6192   -0.7735 C   0  0  0  0  0  0  0  0  0  0  0  0
    0.1493   -0.0707   -0.4806 C   0  0  0  0  0  0  0  0  0  0  0  0
    0.2824    1.0047    0.4440 N   0  0  0  0  0  0  0  0  0  0  0  0
    0.7028   -0.3111    0.7849 O   0  0  0  0  0  0  0  0  0  0  0  0
   -1.6526   -0.0826   -1.6147 H   0  0  0  0  0  0  0  0  0  0  0  0
   -1.8546   -0.5114    0.0977 H   0  0  0  0  0  0  0  0  0  0  0  0
   -1.1409   -1.6749   -1.0414 H   0  0  0  0  0  0  0  0  0  0  0  0
    0.8792   -0.1090   -1.2887 H   0  0  0  0  0  0  0  0  0  0  0  0
    1.1695    1.4870    0.1950 H   0  0  0  0  0  0  0  0  0  0  0  0
  1  2  1  0
  1  5  1  0
  1  6  1  0
  1  7  1  0
  2  3  1  0
  2  4  1  0
  2  8  1  0
  3  4  1  0
  3  9  1  0
M  END
>  <reaction>  (1) 
rmg_rxn_14068

>  <type>  (1) 
r1h

>  <mol_properties>  (1) 
{"2": {"label": "donator", "atom_type": "N3s"}, "8": {"label": "d_hydrogen", "atom_type": "H0"}}

>  <electro_map>  (1) 
{"8": {"R": null, "A": null, "D": null}, "2": {"R": 1.040000090965854, "A": null, "D": null}, "3": {"R": 1.4227209404320553, "A": 103.54834561457481, "D": null}, "1": {"R": 1.4019887575822512, "A": 70.31756559271467, "D": 65.37141802434599}, "0": {"R": 1.4949401710812058, "A": 118.2288407940012, "D": 250.49852359160315}, "4": {"R": 1.091448460433722, "A": 109.83074580751149, "D": 160.14512642552288}, "5": {"R": 1.7767867001368518, "A": 35.377384964754285, "D": 239.09852141607976}, "6": {"R": 1.777833305259946, "A": 59.65248749335075, "D": 323.6759412931368}, "7": {"R": 2.5678958372993796, "A": 88.76340941277425, "D": 66.77050372778037}}

$$$$

     RDKit          3D

 10  9  0  0  0  0  0  0  0  0999 V2000
   -2.0799    1.2581    0.1731 H   0  0  0  0  0  0  0  0  0  0  0  0
   -1.0886    1.5291   -0.1530 C   0  0  0  0  0  0  0  0  0  0  0  0
   -0.3375    0.5203   -0.3044 C   0  0  0  0  0  0  0  0  0  0  0  0
    0.3285   -0.6188   -0.4107 C   0  0  0  0  0  0  0  0  0  0  0  0
    1.0368   -1.2860    0.7261 C   0  0  0  0  0  0  0  0  0  0  0  0
   -0.9502    2.5953   -0.2342 H   0  0  0  0  0  0  0  0  0  0  0  0
    0.3774   -1.0940   -1.3860 H   0  0  0  0  0  0  0  0  0  0  0  0
    2.1046   -1.3860    0.5142 H   0  0  0  0  0  0  0  0  0  0  0  0
    0.6419   -2.2935    0.8797 H   0  0  0  0  0  0  0  0  0  0  0  0
    0.9145   -0.7242    1.6503 H   0  0  0  0  0  0  0  0  0  0  0  0
  1  2  1  0
  2  3  2  0
  2  6  1  0
  3  4  2  0
  4  5  1  0
  4  7  1  0
  5  8  1  0
  5  9  1  0
  5 10  1  0
M  END
>  <reaction>  (2) 
rmg_rxn_14068

>  <type>  (2) 
r2h

>  <mol_properties>  (2) 
{"0": {"label": "a_hydrogen", "atom_type": "H0"}, "1": {"label": "acceptor", "atom_type": "Cd"}}

>  <electro_map>  (2) 
{"0": {"R": null, "A": null, "D": null}, "1": {"R": 1.0782013465275722, "A": null, "D": null}, "2": {"R": 1.2667256973130672, "A": 112.40605926520847, "D": null}, "3": {"R": 1.3238189904062985, "A": 142.57483130944266, "D": 179.40165021744843}, "4": {"R": 1.4963267172360304, "A": 124.11654472801577, "D": 277.1870879764995}, "5": {"R": 4.464788641802297, "A": 40.38965970235077, "D": 349.49776081041995}, "6": {"R": 4.086578610598429, "A": 29.686410806581964, "D": 354.6136529279737}, "7": {"R": 2.584405912239788, "A": 96.42379646315729, "D": 338.0859380493388}, "8": {"R": 1.7597106857276252, "A": 69.84638109639874, "D": 100.84333821278159}, "9": {"R": 1.7694275680381284, "A": 60.33539279524463, "D": 259.2282674551733}}

$$$$

     RDKit          3D

 18 17  0  0  0  0  0  0  0  0999 V2000
   -2.9313   -0.8648   -0.7317 C   0  0  0  0  0  0  0  0  0  0  0  0
   -1.5718   -0.3163   -0.4388 C   0  0  0  0  0  0  0  0  0  0  0  0
   -1.4387    0.7591    0.4858 N   0  0  0  0  0  0  0  0  0  0  0  0
   -1.0183   -0.5567    0.8267 O   0  0  0  0  0  0  0  0  0  0  0  0
   -3.3737   -0.3282   -1.5730 H   0  0  0  0  0  0  0  0  0  0  0  0
   -3.5757   -0.7570    0.1394 H   0  0  0  0  0  0  0  0  0  0  0  0
   -2.8620   -1.9205   -0.9997 H   0  0  0  0  0  0  0  0  0  0  0  0
   -0.8419   -0.3546   -1.2469 H   0  0  0  0  0  0  0  0  0  0  0  0
   -0.3993    1.3243    0.1941 H   0  0  0  0  0  0  0  0  0  0  0  0
    0.8769    1.6731   -0.2258 C   0  0  0  0  0  0  0  0  0  0  0  0
    1.6280    0.6644   -0.3772 C   0  0  0  0  0  0  0  0  0  0  0  0
    2.2940   -0.4747   -0.4834 C   0  0  0  0  0  3  0  0  0  0  0  0
    3.0023   -1.1419    0.6533 C   0  0  0  0  0  0  0  0  0  0  0  0
    1.0153    2.7393   -0.3069 H   0  0  0  0  0  0  0  0  0  0  0  0
    2.3429   -0.9500   -1.4588 H   0  0  0  0  0  0  0  0  0  0  0  0
    4.0701   -1.2420    0.4414 H   0  0  0  0  0  0  0  0  0  0  0  0
    2.6074   -2.1494    0.8069 H   0  0  0  0  0  0  0  0  0  0  0  0
    2.8799   -0.5801    1.5776 H   0  0  0  0  0  0  0  0  0  0  0  0
  1  2  1  0
  1  5  1  0
  1  6  1  0
  1  7  1  0
  2  3  1  0
  2  4  1  0
  2  8  1  0
  3  4  1  0
  3  9  1  0
 10 11  3  0
 10 14  1  0
 11 12  1  0
 12 13  1  0
 12 15  1  0
 13 16  1  0
 13 17  1  0
 13 18  1  0
M  RAD  1  12   2
M  END
>  <reaction>  (3) 
rmg_rxn_14068

>  <type>  (3) 
ts

>  <mol_properties>  (3) 
{"2": {"label": "*1", "atom_type": "N3s"}, "3": {"label": "*0", "atom_type": "O2s"}, "8": {"label": "*2", "atom_type": "H0"}, "9": {"label": "*3", "atom_type": "Ct"}, "10": {"label": "*4", "atom_type": "Ct"}}

$$$$
