
     RDKit          3D

 10  9  0  0  0  0  0  0  0  0999 V2000
    1.0939    1.3925   -0.7108 C   0  0  0  0  0  0  0  0  0  0  0  0
    0.4812    0.4615   -0.0423 C   0  0  0  0  0  0  0  0  0  0  0  0
   -0.1303   -0.4761    0.6325 C   0  0  0  0  0  0  0  0  0  0  0  0
   -1.3039   -1.2248    0.1610 C   0  0  0  0  0  0  0  0  0  0  0  0
    0.8421    2.4399   -0.5840 H   0  0  0  0  0  0  0  0  0  0  0  0
    1.8796    1.1515   -1.4194 H   0  0  0  0  0  0  0  0  0  0  0  0
    0.3042   -0.7794    1.5800 H   0  0  0  0  0  0  0  0  0  0  0  0
   -0.9541   -2.1536   -0.2843 H   0  0  0  0  0  0  0  0  0  0  0  0
   -1.8506   -0.7476   -0.6491 H   0  0  0  0  0  0  0  0  0  0  0  0
   -1.9630   -1.5656    0.9568 H   0  0  0  0  0  0  0  0  0  0  0  0
  1  2  2  0
  1  5  1  0
  1  6  1  0
  2  3  2  0
  3  4  1  0
  3  7  1  0
  4  8  1  0
  4  9  1  0
  4 10  1  0
M  END
>  <reaction>  (1) 
rmg_rxn_14141

>  <type>  (1) 
r1h

>  <mol_properties>  (1) 
{"3": {"label": "donator", "atom_type": "Cs"}, "7": {"label": "d_hydrogen", "atom_type": "H0"}}

>  <electro_map>  (1) 
{"7": {"R": null, "A": null, "D": null}, "3": {"R": 1.0878157256006529, "A": null, "D": null}, "2": {"R": 1.469725183632036, "A": 108.02876368828755, "D": null}, "1": {"R": 1.3070155405581443, "A": 122.40522143705188, "D": 255.0277611517294}, "0": {"R": 1.0, "A": 90.0, "D": 180.0}, "4": {"R": 1.2996402811331809, "A": 90.0, "D": 180.0}, "5": {"R": 1.0846587411754673, "A": 121.52845670293807, "D": 93.57003161388562}, "6": {"R": 1.8532190437319878, "A": 31.34804487056522, "D": 179.99093952895015}, "8": {"R": 3.8996120357724067, "A": 76.78150754225011, "D": 345.21596281364236}, "9": {"R": 3.100504274269065, "A": 73.90087052221293, "D": 81.67008063318906}}

$$$$

     RDKit          3D

 18 17  0  0  0  0  0  0  0  0999 V2000
   -2.7022    0.2001   -0.4863 H   0  0  0  0  0  0  0  0  0  0  0  0
   -2.3246   -0.7011   -0.9631 C   0  0  0  0  0  0  0  0  0  0  0  0
   -1.4283   -1.3548    0.0520 C   0  0  0  0  0  0  0  0  0  0  0  0
   -0.5194   -0.4838    0.6842 O   0  0  0  0  0  0  0  0  0  0  0  0
    0.4378    0.0908   -0.1720 C   0  0  0  0  0  0  0  0  0  0  0  0
    1.4322    0.8749    0.6572 C   0  0  0  0  0  0  0  0  0  0  0  0
    2.4772    1.5630   -0.2098 C   0  0  0  0  0  0  0  0  0  0  0  0
   -1.8399   -0.3008   -1.8503 H   0  0  0  0  0  0  0  0  0  0  0  0
   -3.2192   -1.2711   -1.2022 H   0  0  0  0  0  0  0  0  0  0  0  0
   -0.8734   -2.1841   -0.4202 H   0  0  0  0  0  0  0  0  0  0  0  0
   -2.0273   -1.7842    0.8566 H   0  0  0  0  0  0  0  0  0  0  0  0
    0.9520   -0.6980   -0.7433 H   0  0  0  0  0  0  0  0  0  0  0  0
   -0.0418    0.7652   -0.8939 H   0  0  0  0  0  0  0  0  0  0  0  0
    1.9106    0.1992    1.3700 H   0  0  0  0  0  0  0  0  0  0  0  0
    0.8837    1.6191    1.2392 H   0  0  0  0  0  0  0  0  0  0  0  0
    2.0093    2.2663   -0.9025 H   0  0  0  0  0  0  0  0  0  0  0  0
    3.0443    0.8395   -0.8003 H   0  0  0  0  0  0  0  0  0  0  0  0
    3.1863    2.1227    0.4006 H   0  0  0  0  0  0  0  0  0  0  0  0
  1  2  1  0
  2  3  1  0
  2  8  1  0
  2  9  1  0
  3  4  1  0
  3 10  1  0
  3 11  1  0
  4  5  1  0
  5  6  1  0
  5 12  1  0
  5 13  1  0
  6  7  1  0
  6 14  1  0
  6 15  1  0
  7 16  1  0
  7 17  1  0
  7 18  1  0
M  END
>  <reaction>  (2) 
rmg_rxn_14141

>  <type>  (2) 
r2h

>  <mol_properties>  (2) 
{"0": {"label": "a_hydrogen", "atom_type": "H0"}, "1": {"label": "acceptor", "atom_type": "Cs"}}

>  <electro_map>  (2) 
{"0": {"R": null, "A": null, "D": null}, "1": {"R": 1.0872938618464523, "A": null, "D": null}, "2": {"R": 1.5036962585485882, "A": 105.74128453705111, "D": null}, "3": {"R": 1.4086884444022156, "A": 92.81504264695803, "D": 138.53196195683952}, "4": {"R": 1.4069220738307702, "A": 114.72906166286573, "D": 295.726909571415}, "5": {"R": 1.513641790275625, "A": 108.97115630158171, "D": 186.15869944040318}, "6": {"R": 1.5222453612559022, "A": 111.90948139255664, "D": 181.76944746594808}, "7": {"R": 4.9801820919343145, "A": 54.783739698220046, "D": 16.001477629260034}, "8": {"R": 1.8066220834141442, "A": 138.1268266848578, "D": 353.4901353385458}, "9": {"R": 2.635790671446441, "A": 67.23402461206253, "D": 317.17576571574426}, "10": {"R": 1.7668211944343482, "A": 63.563093240136055, "D": 124.1911185037347}, "11": {"R": 3.551872194937814, "A": 36.47472210962518, "D": 253.7507474893951}, "12": {"R": 1.7752833234299494, "A": 79.66950124919359, "D": 126.35317334431677}, "13": {"R": 3.042681816392115, "A": 54.852016764887814, "D": 93.06165931251442}, "14": {"R": 1.7571605236215404, "A": 54.49768517866046, "D": 182.14803918202318}, "15": {"R": 2.5044921570371597, "A": 90.56550132432358, "D": 298.6431308521194}, "16": {"R": 1.765667805110619, "A": 90.29331491367076, "D": 0.4237282078004056}, "17": {"R": 1.7633063020899784, "A": 59.899678288601166, "D": 294.2673957114976}}

$$$$

     RDKit          3D

 27 25  0  0  0  0  0  0  0  0999 V2000
   -0.1048    3.1050   -0.7104 C   0  0  0  0  0  0  0  0  0  0  0  0
   -0.7175    2.1741   -0.0419 C   0  0  0  0  0  0  0  0  0  0  0  0
   -1.3290    1.2365    0.6328 C   0  0  0  0  0  0  0  0  0  0  0  0
   -2.5026    0.4877    0.1614 C   0  0  0  0  0  0  0  0  0  0  0  0
   -0.3566    4.1524   -0.5836 H   0  0  0  0  0  0  0  0  0  0  0  0
    0.6809    2.8640   -1.4191 H   0  0  0  0  0  0  0  0  0  0  0  0
   -0.8945    0.9331    1.5804 H   0  0  0  0  0  0  0  0  0  0  0  0
   -2.0890   -0.6103   -0.3650 H   0  0  0  0  0  0  0  0  0  0  0  0
   -3.0493    0.9649   -0.6487 H   0  0  0  0  0  0  0  0  0  0  0  0
   -3.1616    0.1469    0.9571 H   0  0  0  0  0  0  0  0  0  0  0  0
   -1.5963   -1.7863   -0.9871 C   0  0  0  0  0  3  0  0  0  0  0  0
   -0.6999   -2.4399    0.0280 C   0  0  0  0  0  0  0  0  0  0  0  0
    0.2089   -1.5689    0.6602 O   0  0  0  0  0  0  0  0  0  0  0  0
    1.1661   -0.9943   -0.1960 C   0  0  0  0  0  0  0  0  0  0  0  0
    2.1605   -0.2103    0.6332 C   0  0  0  0  0  0  0  0  0  0  0  0
    3.2055    0.4778   -0.2338 C   0  0  0  0  0  0  0  0  0  0  0  0
   -1.1116   -1.3859   -1.8743 H   0  0  0  0  0  0  0  0  0  0  0  0
   -2.4908   -2.3562   -1.2262 H   0  0  0  0  0  0  0  0  0  0  0  0
   -0.1451   -3.2692   -0.4442 H   0  0  0  0  0  0  0  0  0  0  0  0
   -1.2990   -2.8693    0.8326 H   0  0  0  0  0  0  0  0  0  0  0  0
    1.6803   -1.7832   -0.7673 H   0  0  0  0  0  0  0  0  0  0  0  0
    0.6865   -0.3199   -0.9179 H   0  0  0  0  0  0  0  0  0  0  0  0
    2.6389   -0.8859    1.3460 H   0  0  0  0  0  0  0  0  0  0  0  0
    1.6121    0.5340    1.2152 H   0  0  0  0  0  0  0  0  0  0  0  0
    2.7376    1.1812   -0.9265 H   0  0  0  0  0  0  0  0  0  0  0  0
    3.7726   -0.2457   -0.8243 H   0  0  0  0  0  0  0  0  0  0  0  0
    3.9146    1.0376    0.3766 H   0  0  0  0  0  0  0  0  0  0  0  0
  1  2  2  0
  1  5  1  0
  1  6  1  0
  2  3  2  0
  3  4  1  0
  3  7  1  0
  4  8  1  0
  4  9  1  0
  4 10  1  0
 11 12  1  0
 11 17  1  0
 11 18  1  0
 12 13  1  0
 12 19  1  0
 12 20  1  0
 13 14  1  0
 14 15  1  0
 14 21  1  0
 14 22  1  0
 15 16  1  0
 15 23  1  0
 15 24  1  0
 16 25  1  0
 16 26  1  0
 16 27  1  0
M  RAD  1  11   2
M  END
>  <reaction>  (3) 
rmg_rxn_14141

>  <type>  (3) 
ts

>  <mol_properties>  (3) 
{"2": {"label": "*0", "atom_type": "Cd"}, "3": {"label": "*1", "atom_type": "Cs"}, "7": {"label": "*2", "atom_type": "H0"}, "10": {"label": "*3", "atom_type": "Cs"}, "11": {"label": "*4", "atom_type": "Cs"}}

$$$$
