
     RDKit          3D

 10  9  0  0  0  0  0  0  0  0999 V2000
   -1.3845   -0.9195    0.8959 C   0  0  0  0  0  0  0  0  0  0  0  0
   -0.4385   -0.5022    0.1462 C   0  0  0  0  0  0  0  0  0  0  0  0
    0.4647    0.0064   -0.6640 C   0  0  0  0  0  0  0  0  0  0  0  0
    1.2642    1.2398   -0.3668 C   0  0  0  0  0  0  0  0  0  0  0  0
   -2.3750   -0.5351    0.7012 H   0  0  0  0  0  0  0  0  0  0  0  0
   -1.3655   -1.6389    1.7014 H   0  0  0  0  0  0  0  0  0  0  0  0
    0.6574   -0.5045   -1.6027 H   0  0  0  0  0  0  0  0  0  0  0  0
    1.0019    1.6543    0.6059 H   0  0  0  0  0  0  0  0  0  0  0  0
    1.0899    2.0064   -1.1270 H   0  0  0  0  0  0  0  0  0  0  0  0
    2.3349    1.0211   -0.3708 H   0  0  0  0  0  0  0  0  0  0  0  0
  1  2  2  0
  1  5  1  0
  1  6  1  0
  2  3  2  0
  3  4  1  0
  3  7  1  0
  4  8  1  0
  4  9  1  0
  4 10  1  0
M  END
>  <reaction>  (1) 
rmg_rxn_14052

>  <type>  (1) 
r1h

>  <mol_properties>  (1) 
{"0": {"label": "donator", "atom_type": "Cd"}, "4": {"label": "d_hydrogen", "atom_type": "H0"}}

>  <electro_map>  (1) 
{"4": {"R": null, "A": null, "D": null}, "0": {"R": 1.0801761851712188, "A": null, "D": null}, "1": {"R": 1.2771847593886183, "A": 117.2035705272143, "D": null}, "2": {"R": 1.3156245143282395, "A": 146.70359325640607, "D": 181.86100674058983}, "3": {"R": 1.499641693553967, "A": 124.1880990844356, "D": 79.77819928304129}, "5": {"R": 4.413626914348618, "A": 40.42651437627793, "D": 13.308840915621964}, "6": {"R": 4.036848571945976, "A": 30.071840639659328, "D": 6.719075985994394}, "7": {"R": 3.107545554087267, "A": 70.67388478327003, "D": 357.84654005953166}, "8": {"R": 1.770573458582885, "A": 56.49798463239818, "D": 207.30239468113294}, "9": {"R": 1.7586787145248706, "A": 60.18934214953888, "D": 292.72512400966406}}

$$$$

     RDKit          3D

 15 14  0  0  0  0  0  0  0  0999 V2000
    0.6651   -1.2915    0.6491 H   0  0  0  0  0  0  0  0  0  0  0  0
   -0.8604   -2.2598   -0.3181 C   0  0  0  0  0  0  0  0  0  0  0  0
   -0.3314   -1.0015    0.3155 C   0  0  0  0  0  0  0  0  0  0  0  0
   -0.1316    0.1528   -0.6338 C   0  0  0  0  0  0  0  0  0  0  0  0
   -0.0122    1.4069   -0.0149 O   0  0  0  0  0  0  0  0  0  0  0  0
    1.2181    1.6179    0.6283 C   0  0  0  0  0  0  0  0  0  0  0  0
   -1.8854   -2.1194   -0.6768 H   0  0  0  0  0  0  0  0  0  0  0  0
   -0.8664   -3.0899    0.3893 H   0  0  0  0  0  0  0  0  0  0  0  0
   -0.2466   -2.5537   -1.1730 H   0  0  0  0  0  0  0  0  0  0  0  0
   -0.8376   -0.7069    1.2349 H   0  0  0  0  0  0  0  0  0  0  0  0
    0.7416   -0.0453   -1.2775 H   0  0  0  0  0  0  0  0  0  0  0  0
   -1.0041    0.2302   -1.2927 H   0  0  0  0  0  0  0  0  0  0  0  0
    1.2206    2.6469    0.9857 H   0  0  0  0  0  0  0  0  0  0  0  0
    1.3628    0.9438    1.4797 H   0  0  0  0  0  0  0  0  0  0  0  0
    2.0571    1.4751   -0.0644 H   0  0  0  0  0  0  0  0  0  0  0  0
  1  3  1  0
  2  3  1  0
  2  7  1  0
  2  8  1  0
  2  9  1  0
  3  4  1  0
  3 10  1  0
  4  5  1  0
  4 11  1  0
  4 12  1  0
  5  6  1  0
  6 13  1  0
  6 14  1  0
  6 15  1  0
M  END
>  <reaction>  (2) 
rmg_rxn_14052

>  <type>  (2) 
r2h

>  <mol_properties>  (2) 
{"0": {"label": "a_hydrogen", "atom_type": "H0"}, "2": {"label": "acceptor", "atom_type": "Cs"}}

>  <electro_map>  (2) 
{"0": {"R": null, "A": null, "D": null}, "2": {"R": 1.0901253175878265, "A": null, "D": null}, "3": {"R": 1.507847444593853, "A": 105.97322371741613, "D": null}, "4": {"R": 1.4036005280590178, "A": 108.32787871418638, "D": 107.81433494030688}, "5": {"R": 1.4042700498350627, "A": 114.24998199211537, "D": 73.96917758905504}, "1": {"R": 4.50026617322607, "A": 50.91706101349168, "D": 335.2943675567413}, "6": {"R": 1.0950460112498244, "A": 113.00294593095514, "D": 350.42944874413274}, "7": {"R": 1.7654160907676297, "A": 36.04170777094626, "D": 222.9999956455719}, "8": {"R": 1.7642043483255438, "A": 60.06487377254275, "D": 322.28421911403626}, "9": {"R": 3.09162953466719, "A": 54.87980528897257, "D": 68.87148012814}, "10": {"R": 3.0402691561353654, "A": 52.200585089602534, "D": 166.2555604427485}, "11": {"R": 1.7673763939830198, "A": 61.835374099237335, "D": 88.84352970199885}, "12": {"R": 3.997561665262729, "A": 62.58951486228382, "D": 70.00148910145093}, "13": {"R": 1.7789746525563164, "A": 67.91445543912853, "D": 299.3873835535226}, "14": {"R": 1.774470158867515, "A": 60.199292257841876, "D": 69.31267254716231}}

$$$$

     RDKit          3D

 24 22  0  0  0  0  0  0  0  0999 V2000
    0.6280   -1.4477    0.9213 C   0  0  0  0  0  0  0  0  0  0  0  0
    1.5740   -1.0304    0.1715 C   0  0  0  0  0  0  0  0  0  0  0  0
    2.4772   -0.5218   -0.6386 C   0  0  0  0  0  0  0  0  0  0  0  0
    3.2767    0.7116   -0.3414 C   0  0  0  0  0  0  0  0  0  0  0  0
   -0.5857   -0.9768    0.6827 H   0  0  0  0  0  0  0  0  0  0  0  0
    0.6470   -2.1672    1.7268 H   0  0  0  0  0  0  0  0  0  0  0  0
    2.6699   -1.0327   -1.5773 H   0  0  0  0  0  0  0  0  0  0  0  0
    3.0144    1.1260    0.6313 H   0  0  0  0  0  0  0  0  0  0  0  0
    3.1023    1.4782   -1.1017 H   0  0  0  0  0  0  0  0  0  0  0  0
    4.3474    0.4928   -0.3455 H   0  0  0  0  0  0  0  0  0  0  0  0
   -2.3511   -1.8752   -0.3648 C   0  0  0  0  0  0  0  0  0  0  0  0
   -1.8221   -0.6169    0.2687 C   0  0  0  0  0  3  0  0  0  0  0  0
   -1.6223    0.5374   -0.6806 C   0  0  0  0  0  0  0  0  0  0  0  0
   -1.5030    1.7915   -0.0617 O   0  0  0  0  0  0  0  0  0  0  0  0
   -0.2726    2.0026    0.5815 C   0  0  0  0  0  0  0  0  0  0  0  0
   -3.3762   -1.7348   -0.7235 H   0  0  0  0  0  0  0  0  0  0  0  0
   -2.3571   -2.7053    0.3425 H   0  0  0  0  0  0  0  0  0  0  0  0
   -1.7373   -2.1691   -1.2197 H   0  0  0  0  0  0  0  0  0  0  0  0
   -2.3283   -0.3222    1.1882 H   0  0  0  0  0  0  0  0  0  0  0  0
   -0.7492    0.3394   -1.3242 H   0  0  0  0  0  0  0  0  0  0  0  0
   -2.4949    0.6149   -1.3394 H   0  0  0  0  0  0  0  0  0  0  0  0
   -0.2702    3.0315    0.9390 H   0  0  0  0  0  0  0  0  0  0  0  0
   -0.1280    1.3284    1.4330 H   0  0  0  0  0  0  0  0  0  0  0  0
    0.5664    1.8597   -0.1111 H   0  0  0  0  0  0  0  0  0  0  0  0
  1  2  2  0
  1  5  1  0
  1  6  1  0
  2  3  2  0
  3  4  1  0
  3  7  1  0
  4  8  1  0
  4  9  1  0
  4 10  1  0
 11 12  1  0
 11 16  1  0
 11 17  1  0
 11 18  1  0
 12 13  1  0
 12 19  1  0
 13 14  1  0
 13 20  1  0
 13 21  1  0
 14 15  1  0
 15 22  1  0
 15 23  1  0
 15 24  1  0
M  RAD  1  12   2
M  END
>  <reaction>  (3) 
rmg_rxn_14052

>  <type>  (3) 
ts

>  <mol_properties>  (3) 
{"0": {"label": "*1", "atom_type": "Cd"}, "1": {"label": "*0", "atom_type": "Cdd"}, "4": {"label": "*2", "atom_type": "H0"}, "11": {"label": "*3", "atom_type": "Cs"}, "12": {"label": "*4", "atom_type": "Cs"}}

$$$$
