
     RDKit          3D

 13 12  0  0  0  0  0  0  0  0999 V2000
    1.1782    1.2415   -0.1914 N   0  0  0  0  0  2  0  0  0  0  0  0
    0.5671    0.7434    0.8459 N   0  0  0  0  0  0  0  0  0  0  0  0
   -0.1414   -0.3495    0.9251 C   0  0  0  0  0  3  0  0  0  0  0  0
   -0.3405   -1.2054   -0.2735 C   0  0  0  0  0  0  0  0  0  0  0  0
   -1.3103   -0.6019   -1.2963 C   0  0  0  0  0  0  0  0  0  0  0  0
    1.6109    2.0716    0.2617 H   0  0  0  0  0  0  0  0  0  0  0  0
    0.6755    1.2988    1.7023 H   0  0  0  0  0  0  0  0  0  0  0  0
   -0.5727   -0.5615    1.8911 H   0  0  0  0  0  0  0  0  0  0  0  0
   -0.6983   -2.1844    0.0484 H   0  0  0  0  0  0  0  0  0  0  0  0
    0.6324   -1.3538   -0.7564 H   0  0  0  0  0  0  0  0  0  0  0  0
   -0.9577    0.3766   -1.6241 H   0  0  0  0  0  0  0  0  0  0  0  0
   -2.3064   -0.4839   -0.8668 H   0  0  0  0  0  0  0  0  0  0  0  0
   -1.3905   -1.2460   -2.1732 H   0  0  0  0  0  0  0  0  0  0  0  0
  1  2  1  0
  1  6  1  0
  2  3  1  0
  2  7  1  0
  3  4  1  0
  3  8  1  0
  4  5  1  0
  4  9  1  0
  4 10  1  0
  5 11  1  0
  5 12  1  0
  5 13  1  0
M  CHG  2   1  -1   3   1
M  END
>  <reaction>  (1) 
rmg_rxn_2522

>  <type>  (1) 
r1h

>  <mol_properties>  (1) 
{"0": {"label": "donator", "atom_type": "N1sc"}, "5": {"label": "d_hydrogen", "atom_type": "H0"}}

>  <electro_map>  (1) 
{"5": {"R": null, "A": null, "D": null}, "0": {"R": 1.040000033653699, "A": null, "D": null}, "1": {"R": 1.302931557620969, "A": 98.82501279628238, "D": null}, "2": {"R": 1.3048794085591406, "A": 163.59376347864327, "D": 5.396428994830331}, "3": {"R": 1.4862250594347648, "A": 120.4068773527397, "D": 359.7350852337019}, "4": {"R": 1.5332838292354332, "A": 113.32840801491533, "D": 286.6733131140229}, "6": {"R": 4.067812453861417, "A": 51.93439831965222, "D": 18.69287795897914}, "7": {"R": 2.248141580901777, "A": 53.43483901778247, "D": 308.9950697676757}, "8": {"R": 2.4587291679023435, "A": 120.77103367337806, "D": 32.653684652394176}, "9": {"R": 1.7630821754531218, "A": 89.57381000737298, "D": 10.995724533860827}, "10": {"R": 2.505020631564337, "A": 90.25559513757041, "D": 279.4334542027064}, "11": {"R": 1.769983499094455, "A": 89.9834877379973, "D": 358.11650302199826}, "12": {"R": 1.7681578976215984, "A": 59.91412317399917, "D": 295.3736797240142}}

$$$$

     RDKit          3D

  9  8  0  0  0  0  0  0  0  0999 V2000
    0.6064    1.0154    0.4847 C   0  0  0  0  0  0  0  0  0  0  0  0
    0.1391   -0.0436   -0.5065 C   0  0  0  0  0  0  0  0  0  0  0  0
   -0.7648   -0.9715    0.0822 N   0  0  0  0  0  2  0  0  0  0  0  0
    1.1148    0.5505    1.3300 H   0  0  0  0  0  0  0  0  0  0  0  0
    1.2978    1.7099    0.0047 H   0  0  0  0  0  0  0  0  0  0  0  0
   -0.2428    1.5823    0.8675 H   0  0  0  0  0  0  0  0  0  0  0  0
   -0.3448    0.4295   -1.3750 H   0  0  0  0  0  0  0  0  0  0  0  0
    1.0003   -0.5924   -0.9183 H   0  0  0  0  0  0  0  0  0  0  0  0
   -1.0309   -1.6409   -0.6679 H   0  0  0  0  0  0  0  0  0  0  0  0
  1  2  1  0
  1  4  1  0
  1  5  1  0
  1  6  1  0
  2  3  1  0
  2  7  1  0
  2  8  1  0
  3  9  1  0
M  RAD  1   3   2
M  END
>  <reaction>  (2) 
rmg_rxn_2522

>  <type>  (2) 
r2h

>  <mol_properties>  (2) 
{"2": {"label": "acceptor", "atom_type": "N3s"}, "8": {"label": "a_hydrogen", "atom_type": "H0"}}

>  <electro_map>  (2) 
{"8": {"R": null, "A": null, "D": null}, "2": {"R": 1.040000033653699, "A": null, "D": null}, "1": {"R": 1.4229547781282947, "A": 106.4883103052637, "D": null}, "0": {"R": 1.5239465889920367, "A": 142.39131539303736, "D": 359.1456816801094}, "3": {"R": 1.0904406481914035, "A": 110.5371470087847, "D": 59.835319940416355}, "4": {"R": 1.7703512954539544, "A": 35.77683071639128, "D": 121.31175521469882}, "5": {"R": 1.7703512954539544, "A": 59.86750173422658, "D": 36.86976329758694}, "6": {"R": 2.5235854539515787, "A": 68.59304833716733, "D": 257.1816405267349}, "7": {"R": 1.749950612597439, "A": 90.21425661594263, "D": 57.64017584398989}}

$$$$

     RDKit          3D

 21 19  0  0  0  0  0  0  0  0999 V2000
    2.2046    3.5179    1.2709 C   0  0  0  0  0  0  0  0  0  0  0  0
    1.7374    2.4589    0.2797 C   0  0  0  0  0  0  0  0  0  0  0  0
    0.8334    1.5309    0.8684 N   0  0  0  0  0  2  0  0  0  0  0  0
    2.7130    3.0530    2.1161 H   0  0  0  0  0  0  0  0  0  0  0  0
    2.8961    4.2123    0.7909 H   0  0  0  0  0  0  0  0  0  0  0  0
    1.3554    4.0848    1.6537 H   0  0  0  0  0  0  0  0  0  0  0  0
    1.2534    2.9320   -0.5889 H   0  0  0  0  0  0  0  0  0  0  0  0
    2.5986    1.9101   -0.1321 H   0  0  0  0  0  0  0  0  0  0  0  0
   -0.0055   -0.2634   -0.5595 N   0  0  0  0  0  1  0  0  0  0  0  0
   -0.6166   -0.7616    0.4778 N   0  0  0  0  0  0  0  0  0  0  0  0
   -1.3251   -1.8545    0.5570 C   0  0  0  0  0  3  0  0  0  0  0  0
   -1.5242   -2.7104   -0.6416 C   0  0  0  0  0  0  0  0  0  0  0  0
   -2.4940   -2.1068   -1.6644 C   0  0  0  0  0  0  0  0  0  0  0  0
    0.5233    0.7509   -0.0058 H   0  0  0  0  0  0  0  0  0  0  0  0
   -0.5083   -0.2062    1.3342 H   0  0  0  0  0  0  0  0  0  0  0  0
   -1.7564   -2.0665    1.5230 H   0  0  0  0  0  0  0  0  0  0  0  0
   -1.8820   -3.6894   -0.3197 H   0  0  0  0  0  0  0  0  0  0  0  0
   -0.5513   -2.8588   -1.1245 H   0  0  0  0  0  0  0  0  0  0  0  0
   -2.1414   -1.1284   -1.9921 H   0  0  0  0  0  0  0  0  0  0  0  0
   -3.4901   -1.9889   -1.2349 H   0  0  0  0  0  0  0  0  0  0  0  0
   -2.5742   -2.7510   -2.5413 H   0  0  0  0  0  0  0  0  0  0  0  0
  1  2  1  0
  1  4  1  0
  1  5  1  0
  1  6  1  0
  2  3  1  0
  2  7  1  0
  2  8  1  0
  3 14  1  0
  9 10  1  0
 10 11  1  0
 10 15  1  0
 11 12  1  0
 11 16  1  0
 12 13  1  0
 12 17  1  0
 12 18  1  0
 13 19  1  0
 13 20  1  0
 13 21  1  0
M  CHG  2   9  -1  11   1
M  RAD  2   3   2   9   2
M  END
>  <reaction>  (3) 
rmg_rxn_2522

>  <type>  (3) 
ts

>  <mol_properties>  (3) 
{"1": {"label": "*0", "atom_type": "Cs"}, "2": {"label": "*1", "atom_type": "N3s"}, "8": {"label": "*3", "atom_type": "N1sc"}, "9": {"label": "*4", "atom_type": "N3s"}, "13": {"label": "*2", "atom_type": "H0"}}

$$$$
