
     RDKit          3D

 10  9  0  0  0  0  0  0  0  0999 V2000
   -1.6896    0.6464    0.6044 C   0  0  0  0  0  0  0  0  0  0  0  0
   -0.5357    0.3968    0.0618 C   0  0  0  0  0  0  0  0  0  0  0  0
    0.6196    0.1345   -0.4941 C   0  0  0  0  0  0  0  0  0  0  0  0
    1.4407   -1.0475   -0.2040 C   0  0  0  0  0  0  0  0  0  0  0  0
   -1.7676    1.1849    1.5430 H   0  0  0  0  0  0  0  0  0  0  0  0
   -2.6139    0.3269    0.1350 H   0  0  0  0  0  0  0  0  0  0  0  0
    1.0330    0.8684   -1.1803 H   0  0  0  0  0  0  0  0  0  0  0  0
    2.2254   -0.7349    0.4810 H   0  0  0  0  0  0  0  0  0  0  0  0
    2.0195   -1.4087   -1.0508 H   0  0  0  0  0  0  0  0  0  0  0  0
    0.9215   -1.8449    0.3228 H   0  0  0  0  0  0  0  0  0  0  0  0
  1  2  2  0
  1  5  1  0
  1  6  1  0
  2  3  2  0
  3  4  1  0
  3  7  1  0
  4  8  1  0
  4  9  1  0
  4 10  1  0
M  END
>  <reaction>  (1) 
rmg_rxn_14142

>  <type>  (1) 
r1h

>  <mol_properties>  (1) 
{"3": {"label": "donator", "atom_type": "Cs"}, "7": {"label": "d_hydrogen", "atom_type": "H0"}}

>  <electro_map>  (1) 
{"7": {"R": null, "A": null, "D": null}, "3": {"R": 1.0875007300538868, "A": null, "D": null}, "2": {"R": 1.4681871837375127, "A": 107.2499219551197, "D": null}, "1": {"R": 1.3086515043808313, "A": 124.6744973496029, "D": 101.04996076141394}, "0": {"R": 1.0, "A": 90.0, "D": 180.0}, "4": {"R": 1.299329250864264, "A": 90.0, "D": 180.0}, "5": {"R": 1.084885945719937, "A": 121.70167816800755, "D": 87.4829221631096}, "6": {"R": 1.8533657001280819, "A": 31.325442242876274, "D": 179.81644619604057}, "8": {"R": 3.914487042883004, "A": 76.45586887686683, "D": 345.3601300566192}, "9": {"R": 2.485000627544485, "A": 103.03572750881037, "D": 105.69203758126658}}

$$$$

     RDKit          3D

 14 14  0  0  0  0  0  0  0  0999 V2000
   -1.5742   -0.9734    0.4415 H   0  0  0  0  0  0  0  0  0  0  0  0
   -0.7708   -0.5773    1.0593 C   0  0  0  0  0  0  0  0  0  0  0  0
    0.4800   -1.2349    0.5461 C   0  0  0  0  0  0  0  0  0  0  0  0
    0.7499   -0.8312   -0.7839 O   0  0  0  0  0  0  0  0  0  0  0  0
    0.7697    0.5592   -0.8967 C   0  0  0  0  0  0  0  0  0  0  0  0
   -0.4572    1.1452   -0.5843 O   0  0  0  0  0  0  0  0  0  0  0  0
   -0.8221    0.8950    0.7617 C   0  0  0  0  0  0  0  0  0  0  0  0
   -1.0474   -0.8478    2.0762 H   0  0  0  0  0  0  0  0  0  0  0  0
    1.3417   -0.9763    1.1862 H   0  0  0  0  0  0  0  0  0  0  0  0
    0.3906   -2.3214    0.5333 H   0  0  0  0  0  0  0  0  0  0  0  0
    0.9854    0.7958   -1.9362 H   0  0  0  0  0  0  0  0  0  0  0  0
    1.5547    0.9722   -0.2373 H   0  0  0  0  0  0  0  0  0  0  0  0
   -1.8287    1.2943    0.8919 H   0  0  0  0  0  0  0  0  0  0  0  0
   -0.1456    1.4521    1.4327 H   0  0  0  0  0  0  0  0  0  0  0  0
  1  2  1  0
  2  3  1  0
  2  7  1  0
  2  8  1  0
  3  4  1  0
  3  9  1  0
  3 10  1  0
  4  5  1  0
  5  6  1  0
  5 11  1  0
  5 12  1  0
  6  7  1  0
  7 13  1  0
  7 14  1  0
M  END
>  <reaction>  (2) 
rmg_rxn_14142

>  <type>  (2) 
r2h

>  <mol_properties>  (2) 
{"0": {"label": "a_hydrogen", "atom_type": "H0"}, "1": {"label": "acceptor", "atom_type": "Cs"}}

>  <electro_map>  (2) 
{"0": {"R": null, "A": null, "D": null}, "1": {"R": 1.0880808364345964, "A": null, "D": null}, "2": {"R": 1.5034753751929713, "A": 105.1479738117738, "D": null}, "3": {"R": 1.4158901816741578, "A": 96.05518744784061, "D": 238.45617407850344}, "4": {"R": 1.395036920927119, "A": 111.27381642657498, "D": 52.944412190164094}, "5": {"R": 1.39514484316691, "A": 112.83022358594648, "D": 297.67832529417393}, "6": {"R": 1.41684150551883, "A": 111.41084387159013, "D": 62.3609993063546}, "7": {"R": 2.194605703370841, "A": 137.36471874154856, "D": 306.79829724124573}, "8": {"R": 2.552787797714713, "A": 74.63558997673591, "D": 55.66027511218138}, "9": {"R": 1.7720991958253836, "A": 70.38670313890087, "D": 247.45350657284303}, "10": {"R": 4.021041126844441, "A": 63.79823478277964, "D": 101.28078355919416}, "11": {"R": 1.8004139424239936, "A": 62.82233809355206, "D": 353.77202684694697}, "12": {"R": 3.581329376779029, "A": 90.43464292644498, "D": 287.007851810304}, "13": {"R": 1.7748671495393096, "A": 37.64766053370871, "D": 189.65036080406801}}

$$$$

     RDKit          3D

 23 22  0  0  0  0  0  0  0  0999 V2000
   -4.2755    0.3821    0.3937 C   0  0  0  0  0  0  0  0  0  0  0  0
   -3.1215    0.1325   -0.1489 C   0  0  0  0  0  0  0  0  0  0  0  0
   -1.9663   -0.1299   -0.7048 C   0  0  0  0  0  0  0  0  0  0  0  0
   -1.1451   -1.3118   -0.4147 C   0  0  0  0  0  0  0  0  0  0  0  0
   -4.3534    0.9206    1.3323 H   0  0  0  0  0  0  0  0  0  0  0  0
   -5.1997    0.0626   -0.0757 H   0  0  0  0  0  0  0  0  0  0  0  0
   -1.5528    0.6041   -1.3910 H   0  0  0  0  0  0  0  0  0  0  0  0
   -0.2131   -0.9404    0.3989 H   0  0  0  0  0  0  0  0  0  0  0  0
   -0.5664   -1.6730   -1.2615 H   0  0  0  0  0  0  0  0  0  0  0  0
   -1.6643   -2.1092    0.1121 H   0  0  0  0  0  0  0  0  0  0  0  0
    0.8259   -0.4282    1.1977 C   0  0  0  0  0  3  0  0  0  0  0  0
    2.0767   -1.0858    0.6846 C   0  0  0  0  0  0  0  0  0  0  0  0
    2.3466   -0.6820   -0.6455 O   0  0  0  0  0  0  0  0  0  0  0  0
    2.3664    0.7083   -0.7582 C   0  0  0  0  0  0  0  0  0  0  0  0
    1.1395    1.2943   -0.4458 O   0  0  0  0  0  0  0  0  0  0  0  0
    0.7746    1.0441    0.9002 C   0  0  0  0  0  0  0  0  0  0  0  0
    0.5493   -0.6987    2.2147 H   0  0  0  0  0  0  0  0  0  0  0  0
    2.9384   -0.8272    1.3247 H   0  0  0  0  0  0  0  0  0  0  0  0
    1.9873   -2.1723    0.6718 H   0  0  0  0  0  0  0  0  0  0  0  0
    2.5821    0.9449   -1.7977 H   0  0  0  0  0  0  0  0  0  0  0  0
    3.1514    1.1214   -0.0988 H   0  0  0  0  0  0  0  0  0  0  0  0
   -0.2320    1.4434    1.0303 H   0  0  0  0  0  0  0  0  0  0  0  0
    1.4511    1.6012    1.5712 H   0  0  0  0  0  0  0  0  0  0  0  0
  1  2  2  0
  1  5  1  0
  1  6  1  0
  2  3  2  0
  3  4  1  0
  3  7  1  0
  4  8  1  0
  4  9  1  0
  4 10  1  0
 11 12  1  0
 11 16  1  0
 11 17  1  0
 12 13  1  0
 12 18  1  0
 12 19  1  0
 13 14  1  0
 14 15  1  0
 14 20  1  0
 14 21  1  0
 15 16  1  0
 16 22  1  0
 16 23  1  0
M  RAD  1  11   2
M  END
>  <reaction>  (3) 
rmg_rxn_14142

>  <type>  (3) 
ts

>  <mol_properties>  (3) 
{"2": {"label": "*0", "atom_type": "Cd"}, "3": {"label": "*1", "atom_type": "Cs"}, "7": {"label": "*2", "atom_type": "H0"}, "10": {"label": "*3", "atom_type": "Cs"}, "11": {"label": "*4", "atom_type": "Cs"}}

$$$$
