
     RDKit          3D

 10  9  0  0  0  0  0  0  0  0999 V2000
    1.0981    1.6125    0.0011 C   0  0  0  0  0  0  0  0  0  0  0  0
    0.2325    0.6287   -0.0027 C   0  0  0  0  0  0  0  0  0  0  0  0
   -0.6711   -0.2815   -0.0078 C   0  0  0  0  0  0  0  0  0  0  0  0
   -0.6023   -1.7698    0.0084 C   0  0  0  0  0  0  0  0  0  0  0  0
    1.4898    2.0178   -0.9244 H   0  0  0  0  0  0  0  0  0  0  0  0
    1.4602    2.0367    0.9302 H   0  0  0  0  0  0  0  0  0  0  0  0
   -1.6932    0.0965   -0.0280 H   0  0  0  0  0  0  0  0  0  0  0  0
    0.4309   -2.1187    0.0285 H   0  0  0  0  0  0  0  0  0  0  0  0
   -1.0908   -2.1851   -0.8758 H   0  0  0  0  0  0  0  0  0  0  0  0
   -1.1189   -2.1671    0.8848 H   0  0  0  0  0  0  0  0  0  0  0  0
  1  2  2  0
  1  5  1  0
  1  6  1  0
  2  3  2  0
  3  4  1  0
  3  7  1  0
  4  8  1  0
  4  9  1  0
  4 10  1  0
M  END
>  <reaction>  (1) 
rmg_rxn_13895

>  <type>  (1) 
r1h

>  <mol_properties>  (1) 
{"2": {"label": "donator", "atom_type": "Cd"}, "6": {"label": "d_hydrogen", "atom_type": "H0"}}

>  <electro_map>  (1) 
{"6": {"R": null, "A": null, "D": null}, "2": {"R": 1.0900001003545312, "A": null, "D": null}, "1": {"R": 1.2824793709477096, "A": 114.49641436931701, "D": null}, "0": {"R": 1.3104200230703544, "A": 146.78696709095456, "D": 179.9998841759205}, "3": {"R": 3.7856120021194486, "A": 14.654967933298897, "D": 180.00102307343704}, "4": {"R": 4.426404378849458, "A": 12.255013550375395, "D": 99.21949138875333}, "5": {"R": 1.8548514212564664, "A": 77.90569110482579, "D": 9.430628291372253}, "7": {"R": 4.3749860490848995, "A": 77.76144478098472, "D": 14.548997349598952}, "8": {"R": 1.7713166717924889, "A": 110.05429431906022, "D": 297.533575599928}, "9": {"R": 1.7608986444933703, "A": 60.194376148254634, "D": 272.92088306793704}}

$$$$

     RDKit          3D

  9  8  0  0  0  0  0  0  0  0999 V2000
   -0.6126   -1.1463    0.0019 C   0  0  0  0  0  0  0  0  0  0  0  0
    0.3111   -0.2146    0.0071 C   0  0  0  0  0  0  0  0  0  0  0  0
    0.2673    1.2618   -0.0086 C   0  0  0  0  0  0  0  0  0  0  0  0
   -0.3619   -2.2011    0.0166 H   0  0  0  0  0  0  0  0  0  0  0  0
   -1.6721   -0.8944   -0.0176 H   0  0  0  0  0  0  0  0  0  0  0  0
    0.7630    1.6718    0.8740 H   0  0  0  0  0  0  0  0  0  0  0  0
    0.7910    1.6539   -0.8830 H   0  0  0  0  0  0  0  0  0  0  0  0
   -0.7652    1.6248   -0.0288 H   0  0  0  0  0  0  0  0  0  0  0  0
    1.3417   -0.5689    0.0272 H   0  0  0  0  0  0  0  0  0  0  0  0
  1  2  2  3
  1  4  1  0
  1  5  1  0
  2  3  1  0
  2  9  1  0
  3  6  1  0
  3  7  1  0
  3  8  1  0
M  END
>  <reaction>  (2) 
rmg_rxn_13895

>  <type>  (2) 
r2h

>  <mol_properties>  (2) 
{"1": {"label": "acceptor", "atom_type": "Cd"}, "8": {"label": "a_hydrogen", "atom_type": "H0"}}

>  <electro_map>  (2) 
{"8": {"R": null, "A": null, "D": null}, "1": {"R": 1.0900001003545312, "A": null, "D": null}, "0": {"R": 1.3119779638527442, "A": 115.7792269977027, "D": null}, "2": {"R": 2.563836842242052, "A": 53.47829530250318, "D": 359.9999292036807}, "3": {"R": 3.5197546546136302, "A": 9.775717559943509, "D": 359.9999540625346}, "4": {"R": 1.8508129292679765, "A": 55.373620712237965, "D": 359.9999877758217}, "5": {"R": 3.648344965870173, "A": 91.12133210670045, "D": 346.0612981133642}, "6": {"R": 1.7573217088279172, "A": 76.06383438272243, "D": 90.27843690366694}, "7": {"R": 1.7755032242423678, "A": 60.33818492054224, "D": 44.824722082974255}}

$$$$

     RDKit          3D

 18 16  0  0  0  0  0  0  0  0999 V2000
   -2.6179   -0.6697   -0.0319 C   0  0  0  0  0  0  0  0  0  0  0  0
   -1.6942    0.2620   -0.0267 C   0  0  0  0  0  3  0  0  0  0  0  0
   -1.7380    1.7384   -0.0424 C   0  0  0  0  0  0  0  0  0  0  0  0
   -2.3672   -1.7246   -0.0172 H   0  0  0  0  0  0  0  0  0  0  0  0
   -3.6774   -0.4179   -0.0514 H   0  0  0  0  0  0  0  0  0  0  0  0
   -1.2423    2.1484    0.8402 H   0  0  0  0  0  0  0  0  0  0  0  0
   -1.2143    2.1305   -0.9168 H   0  0  0  0  0  0  0  0  0  0  0  0
   -2.7705    2.1013   -0.0626 H   0  0  0  0  0  0  0  0  0  0  0  0
    2.5972    1.2581    0.0317 C   0  0  0  0  0  0  0  0  0  0  0  0
    1.7316    0.2742    0.0279 C   0  0  0  0  0  0  0  0  0  0  0  0
    0.8281   -0.6359    0.0227 C   0  0  0  0  0  0  0  0  0  0  0  0
    0.8969   -2.1242    0.0390 C   0  0  0  0  0  0  0  0  0  0  0  0
    2.9890    1.6634   -0.8938 H   0  0  0  0  0  0  0  0  0  0  0  0
    2.9594    1.6823    0.9608 H   0  0  0  0  0  0  0  0  0  0  0  0
   -0.3527   -0.1993   -0.0005 H   0  0  0  0  0  0  0  0  0  0  0  0
    1.9300   -2.4732    0.0591 H   0  0  0  0  0  0  0  0  0  0  0  0
    0.4083   -2.5395   -0.8452 H   0  0  0  0  0  0  0  0  0  0  0  0
    0.3802   -2.5216    0.9154 H   0  0  0  0  0  0  0  0  0  0  0  0
  1  2  2  3
  1  4  1  0
  1  5  1  0
  2  3  1  0
  3  6  1  0
  3  7  1  0
  3  8  1  0
  9 10  2  0
  9 13  1  0
  9 14  1  0
 10 11  2  0
 11 12  1  0
 11 15  1  0
 12 16  1  0
 12 17  1  0
 12 18  1  0
M  RAD  1   2   2
M  END
>  <reaction>  (3) 
rmg_rxn_13895

>  <type>  (3) 
ts

>  <mol_properties>  (3) 
{"0": {"label": "*4", "atom_type": "Cd"}, "1": {"label": "*3", "atom_type": "Cd"}, "9": {"label": "*0", "atom_type": "Cdd"}, "10": {"label": "*1", "atom_type": "Cd"}, "14": {"label": "*2", "atom_type": "H0"}}

$$$$
