
     RDKit          3D

  9  8  0  0  0  0  0  0  0  0999 V2000
   -0.3273   -0.8461   -0.8641 C   0  0  0  0  0  0  0  0  0  0  0  0
   -0.4304    0.3672    0.0704 C   0  0  0  0  0  0  0  0  0  0  0  0
    0.7380    0.4799    0.8887 N   0  0  0  0  0  2  0  0  0  0  0  0
   -0.2005   -1.7622   -0.2867 H   0  0  0  0  0  0  0  0  0  0  0  0
   -1.2382   -0.9343   -1.4574 H   0  0  0  0  0  0  0  0  0  0  0  0
    0.5241   -0.7489   -1.5385 H   0  0  0  0  0  0  0  0  0  0  0  0
   -1.3010    0.2503    0.7234 H   0  0  0  0  0  0  0  0  0  0  0  0
   -0.5819    1.2723   -0.5335 H   0  0  0  0  0  0  0  0  0  0  0  0
    1.4666    0.9011    0.2777 H   0  0  0  0  0  0  0  0  0  0  0  0
  1  2  1  0
  1  4  1  0
  1  5  1  0
  1  6  1  0
  2  3  1  0
  2  7  1  0
  2  8  1  0
  3  9  1  0
M  RAD  1   3   2
M  END
>  <reaction>  (1) 
rmg_rxn_2720

>  <type>  (1) 
r1h

>  <mol_properties>  (1) 
{"2": {"label": "donator", "atom_type": "N3s"}, "8": {"label": "d_hydrogen", "atom_type": "H0"}}

>  <electro_map>  (1) 
{"8": {"R": null, "A": null, "D": null}, "2": {"R": 1.0399999763415406, "A": null, "D": null}, "1": {"R": 1.4308557792033119, "A": 105.54339016659011, "D": null}, "0": {"R": 1.5349751528241744, "A": 102.26223224625595, "D": 249.58160908547913}, "3": {"R": 1.0902913586093972, "A": 110.45808796101029, "D": 58.61980745550027}, "4": {"R": 1.7699839031974627, "A": 35.75787199045229, "D": 120.42579828494291}, "5": {"R": 1.7739630773200508, "A": 59.77690556834904, "D": 36.681071508607445}, "6": {"R": 3.0734261990112994, "A": 53.87055195342985, "D": 293.9504036925954}, "7": {"R": 1.7724174893521218, "A": 54.87187389298088, "D": 256.29739951663555}}

$$$$

     RDKit          3D

  9  8  0  0  0  0  0  0  0  0999 V2000
   -0.8701    1.5126   -0.1210 C   0  0  0  0  0  0  0  0  0  0  0  0
    0.3882    0.7645    0.1915 C   0  0  0  0  0  0  0  0  0  0  0  0
    0.2678   -1.0321   -0.0727 S   0  0  0  0  0  0  0  0  0  0  0  0
   -0.8726    2.5621    0.1676 H   0  0  0  0  0  0  0  0  0  0  0  0
   -1.3006    1.3240   -1.1012 H   0  0  0  0  0  0  0  0  0  0  0  0
    0.7151    0.9549    1.2136 H   0  0  0  0  0  0  0  0  0  0  0  0
    1.2042    1.0793   -0.4671 H   0  0  0  0  0  0  0  0  0  0  0  0
   -0.6668   -1.2570    0.8619 H   0  0  0  0  0  0  0  0  0  0  0  0
   -1.6008    1.0986    0.5703 H   0  0  0  0  0  0  0  0  0  0  0  0
  1  2  1  0
  1  4  1  0
  1  5  1  0
  1  9  1  0
  2  3  1  0
  2  6  1  0
  2  7  1  0
  3  8  1  0
M  END
>  <reaction>  (2) 
rmg_rxn_2720

>  <type>  (2) 
r2h

>  <mol_properties>  (2) 
{"0": {"label": "acceptor", "atom_type": "Cs"}, "8": {"label": "a_hydrogen", "atom_type": "H0"}}

>  <electro_map>  (2) 
{"8": {"R": null, "A": null, "D": null}, "0": {"R": 1.0877473418357386, "A": null, "D": null}, "1": {"R": 1.4968545040248509, "A": 103.98968250923045, "D": null}, "2": {"R": 1.8199597454859293, "A": 97.08997755302715, "D": 233.7745478418569}, "7": {"R": 1.3407111738203537, "A": 96.3436967604445, "D": 296.2649667807723}, "3": {"R": 3.8871338895757477, "A": 75.38109784687454, "D": 18.387485031006854}, "4": {"R": 1.8237735441909235, "A": 57.97323336852819, "D": 65.41144628039197}, "5": {"R": 3.091549177242312, "A": 53.63560478175645, "D": 331.49785454553904}, "6": {"R": 1.7548027211350994, "A": 57.05385594110667, "D": 250.06718896698155}}

$$$$

     RDKit          3D

 17 15  0  0  0  0  0  0  0  0999 V2000
    0.5955    1.5392   -0.5016 C   0  0  0  0  0  3  0  0  0  0  0  0
    1.8538    0.7911   -0.1890 C   0  0  0  0  0  0  0  0  0  0  0  0
    1.7335   -1.0056   -0.4532 S   0  0  0  0  0  0  0  0  0  0  0  0
    0.5930    2.5886   -0.2129 H   0  0  0  0  0  0  0  0  0  0  0  0
    0.1650    1.3505   -1.4817 H   0  0  0  0  0  0  0  0  0  0  0  0
    2.1807    0.9815    0.8331 H   0  0  0  0  0  0  0  0  0  0  0  0
    2.6698    1.1058   -0.8476 H   0  0  0  0  0  0  0  0  0  0  0  0
    0.7988   -1.2304    0.4813 H   0  0  0  0  0  0  0  0  0  0  0  0
   -2.2629   -0.8123   -0.6468 C   0  0  0  0  0  0  0  0  0  0  0  0
   -2.3659    0.4010    0.2878 C   0  0  0  0  0  0  0  0  0  0  0  0
   -1.1976    0.5137    1.1061 N   0  0  0  0  0  2  0  0  0  0  0  0
   -2.1361   -1.7284   -0.0694 H   0  0  0  0  0  0  0  0  0  0  0  0
   -3.1738   -0.9005   -1.2401 H   0  0  0  0  0  0  0  0  0  0  0  0
   -1.4115   -0.7150   -1.3211 H   0  0  0  0  0  0  0  0  0  0  0  0
   -3.2366    0.2842    0.9408 H   0  0  0  0  0  0  0  0  0  0  0  0
   -2.5175    1.3062   -0.3162 H   0  0  0  0  0  0  0  0  0  0  0  0
   -0.3709    0.9916    0.4128 H   0  0  0  0  0  0  0  0  0  0  0  0
  1  2  1  0
  1  4  1  0
  1  5  1  0
  2  3  1  0
  2  6  1  0
  2  7  1  0
  3  8  1  0
  9 10  1  0
  9 12  1  0
  9 13  1  0
  9 14  1  0
 10 11  1  0
 10 15  1  0
 10 16  1  0
 11 17  1  0
M  RAD  2   1   2  11   2
M  END
>  <reaction>  (3) 
rmg_rxn_2720

>  <type>  (3) 
ts

>  <mol_properties>  (3) 
{"0": {"label": "*3", "atom_type": "Cs"}, "1": {"label": "*4", "atom_type": "Cs"}, "9": {"label": "*0", "atom_type": "Cs"}, "10": {"label": "*1", "atom_type": "N3s"}, "16": {"label": "*2", "atom_type": "H0"}}

$$$$
