
     RDKit          3D

 10  9  0  0  0  0  0  0  0  0999 V2000
    0.7367   -1.7833   -0.3319 C   0  0  0  0  0  0  0  0  0  0  0  0
    0.3699   -0.5345   -0.1573 C   0  0  0  0  0  0  0  0  0  0  0  0
    0.1054    0.7083   -0.0083 C   0  0  0  0  0  0  0  0  0  0  0  0
   -1.0974    1.4558    0.4492 C   0  0  0  0  0  0  0  0  0  0  0  0
    0.5798   -2.2875   -1.2780 H   0  0  0  0  0  0  0  0  0  0  0  0
    1.1898   -2.3505    0.4728 H   0  0  0  0  0  0  0  0  0  0  0  0
    0.9312    1.3687   -0.2729 H   0  0  0  0  0  0  0  0  0  0  0  0
   -1.4435    2.1396   -0.3290 H   0  0  0  0  0  0  0  0  0  0  0  0
   -0.8620    2.0583    1.3293 H   0  0  0  0  0  0  0  0  0  0  0  0
   -1.9141    0.7786    0.7023 H   0  0  0  0  0  0  0  0  0  0  0  0
  1  2  2  0
  1  5  1  0
  1  6  1  0
  2  3  2  0
  3  4  1  0
  3  7  1  0
  4  8  1  0
  4  9  1  0
  4 10  1  0
M  END
>  <reaction>  (1) 
rmg_rxn_13847

>  <type>  (1) 
r1h

>  <mol_properties>  (1) 
{"2": {"label": "donator", "atom_type": "Cd"}, "6": {"label": "d_hydrogen", "atom_type": "H0"}}

>  <electro_map>  (1) 
{"6": {"R": null, "A": null, "D": null}, "2": {"R": 1.0900000456713745, "A": null, "D": null}, "1": {"R": 1.2793538554074422, "A": 113.80485795388832, "D": null}, "0": {"R": 1.3132176026960038, "A": 145.48453846240264, "D": 180.80471833538058}, "3": {"R": 3.8034222200679277, "A": 13.625996544759657, "D": 173.08135958463438}, "4": {"R": 4.45066428209092, "A": 12.122648976709845, "D": 97.51667755991522}, "5": {"R": 1.8550277025154125, "A": 77.65658396785675, "D": 8.899510473621183}, "7": {"R": 5.266623925788094, "A": 70.30280109279144, "D": 356.96506725711953}, "8": {"R": 1.7592339765765754, "A": 69.62609969847433, "D": 179.76936099982697}, "9": {"R": 1.77131115319882, "A": 60.2229320152841, "D": 302.5652570033227}}

$$$$

     RDKit          3D

 14 13  0  0  0  0  0  0  0  0999 V2000
   -2.1601    0.7479   -0.1970 H   0  0  0  0  0  0  0  0  0  0  0  0
   -1.3020    1.3422   -0.5050 C   0  0  0  0  0  0  0  0  0  0  0  0
   -0.2169    0.3164   -0.6604 C   0  0  0  0  0  0  0  0  0  0  0  0
    0.2665   -0.2570    0.6676 C   0  0  0  0  0  0  0  0  0  0  0  0
    1.2879   -1.3709    0.4898 C   0  0  0  0  0  0  0  0  0  0  0  0
   -1.6570    1.8059   -1.4225 H   0  0  0  0  0  0  0  0  0  0  0  0
   -1.1719    2.0559    0.3071 H   0  0  0  0  0  0  0  0  0  0  0  0
    0.6347    0.7538   -1.1985 H   0  0  0  0  0  0  0  0  0  0  0  0
   -0.5825   -0.4998   -1.2940 H   0  0  0  0  0  0  0  0  0  0  0  0
    0.6959    0.5495    1.2706 H   0  0  0  0  0  0  0  0  0  0  0  0
   -0.5953   -0.6354    1.2238 H   0  0  0  0  0  0  0  0  0  0  0  0
    2.1639   -1.0191   -0.0607 H   0  0  0  0  0  0  0  0  0  0  0  0
    0.8562   -2.2042   -0.0698 H   0  0  0  0  0  0  0  0  0  0  0  0
    1.6305   -1.7556    1.4516 H   0  0  0  0  0  0  0  0  0  0  0  0
  1  2  1  0
  2  3  1  0
  2  6  1  0
  2  7  1  0
  3  4  1  0
  3  8  1  0
  3  9  1  0
  4  5  1  0
  4 10  1  0
  4 11  1  0
  5 12  1  0
  5 13  1  0
  5 14  1  0
M  END
>  <reaction>  (2) 
rmg_rxn_13847

>  <type>  (2) 
r2h

>  <mol_properties>  (2) 
{"0": {"label": "a_hydrogen", "atom_type": "H0"}, "1": {"label": "acceptor", "atom_type": "Cs"}}

>  <electro_map>  (2) 
{"0": {"R": null, "A": null, "D": null}, "1": {"R": 1.0882600605607196, "A": null, "D": null}, "2": {"R": 1.5012580046809583, "A": 103.06522196406756, "D": null}, "3": {"R": 1.525111682116781, "A": 100.56274476285145, "D": 117.9705445569509}, "4": {"R": 1.521738993307072, "A": 112.71716180670717, "D": 175.55255163030435}, "5": {"R": 4.7351117961378515, "A": 30.532227484289383, "D": 358.1690517691594}, "6": {"R": 1.81361749334594, "A": 62.67596104494795, "D": 18.433078592758918}, "7": {"R": 2.688121102886129, "A": 65.09466690553582, "D": 28.21334329653832}, "8": {"R": 1.7498777210566778, "A": 84.83941900609051, "D": 294.50589165622944}, "9": {"R": 3.0515885890581838, "A": 54.29802390453098, "D": 300.3093864280998}, "10": {"R": 1.7530942536784135, "A": 55.71003818431652, "D": 175.86858565693527}, "11": {"R": 3.0677031866180475, "A": 55.47469617682843, "D": 60.28572906219801}, "12": {"R": 1.764774489004132, "A": 54.52429816085659, "D": 178.9408250133848}, "13": {"R": 1.7650685741730272, "A": 59.99222433637582, "D": 294.13960666748164}}

$$$$

     RDKit          3D

 23 21  0  0  0  0  0  0  0  0999 V2000
   -1.0394   -2.2185   -0.2165 C   0  0  0  0  0  0  0  0  0  0  0  0
   -1.4061   -0.9697   -0.0419 C   0  0  0  0  0  0  0  0  0  0  0  0
   -1.6707    0.2731    0.1071 C   0  0  0  0  0  0  0  0  0  0  0  0
   -2.8735    1.0206    0.5646 C   0  0  0  0  0  0  0  0  0  0  0  0
   -1.1963   -2.7227   -1.1625 H   0  0  0  0  0  0  0  0  0  0  0  0
   -0.5863   -2.7857    0.5882 H   0  0  0  0  0  0  0  0  0  0  0  0
   -0.6907    1.0567   -0.2068 H   0  0  0  0  0  0  0  0  0  0  0  0
   -3.2195    1.7043   -0.2136 H   0  0  0  0  0  0  0  0  0  0  0  0
   -2.6381    1.6231    1.4448 H   0  0  0  0  0  0  0  0  0  0  0  0
   -3.6901    0.3434    0.8177 H   0  0  0  0  0  0  0  0  0  0  0  0
    0.4038    1.8148   -0.5998 C   0  0  0  0  0  3  0  0  0  0  0  0
    1.4889    0.7890   -0.7552 C   0  0  0  0  0  0  0  0  0  0  0  0
    1.9724    0.2156    0.5728 C   0  0  0  0  0  0  0  0  0  0  0  0
    2.9938   -0.8983    0.3950 C   0  0  0  0  0  0  0  0  0  0  0  0
    0.0489    2.2785   -1.5173 H   0  0  0  0  0  0  0  0  0  0  0  0
    0.5340    2.5285    0.2122 H   0  0  0  0  0  0  0  0  0  0  0  0
    2.3406    1.2264   -1.2933 H   0  0  0  0  0  0  0  0  0  0  0  0
    1.1234   -0.0272   -1.3888 H   0  0  0  0  0  0  0  0  0  0  0  0
    2.4018    1.0221    1.1758 H   0  0  0  0  0  0  0  0  0  0  0  0
    1.1106   -0.1628    1.1290 H   0  0  0  0  0  0  0  0  0  0  0  0
    3.8698   -0.5465   -0.1556 H   0  0  0  0  0  0  0  0  0  0  0  0
    2.5621   -1.7315   -0.1646 H   0  0  0  0  0  0  0  0  0  0  0  0
    3.3364   -1.2830    1.3568 H   0  0  0  0  0  0  0  0  0  0  0  0
  1  2  2  0
  1  5  1  0
  1  6  1  0
  2  3  2  0
  3  4  1  0
  3  7  1  0
  4  8  1  0
  4  9  1  0
  4 10  1  0
 11 12  1  0
 11 15  1  0
 11 16  1  0
 12 13  1  0
 12 17  1  0
 12 18  1  0
 13 14  1  0
 13 19  1  0
 13 20  1  0
 14 21  1  0
 14 22  1  0
 14 23  1  0
M  RAD  1  11   2
M  END
>  <reaction>  (3) 
rmg_rxn_13847

>  <type>  (3) 
ts

>  <mol_properties>  (3) 
{"1": {"label": "*0", "atom_type": "Cdd"}, "2": {"label": "*1", "atom_type": "Cd"}, "6": {"label": "*2", "atom_type": "H0"}, "10": {"label": "*3", "atom_type": "Cs"}, "11": {"label": "*4", "atom_type": "Cs"}}

$$$$
