
     RDKit          3D

 10  9  0  0  0  0  0  0  0  0999 V2000
   -1.2179    0.9046    1.1550 C   0  0  0  0  0  0  0  0  0  0  0  0
   -0.4176    0.1068    0.5130 C   0  0  0  0  0  0  0  0  0  0  0  0
    0.3730   -0.7002   -0.1582 C   0  0  0  0  0  0  0  0  0  0  0  0
    1.1133   -0.3373   -1.3646 C   0  0  0  0  0  0  0  0  0  0  0  0
   -2.2824    0.9257    0.9445 H   0  0  0  0  0  0  0  0  0  0  0  0
   -0.8541    1.5763    1.9263 H   0  0  0  0  0  0  0  0  0  0  0  0
    0.5382   -1.6912    0.2561 H   0  0  0  0  0  0  0  0  0  0  0  0
    2.0462    0.0977   -1.0169 H   0  0  0  0  0  0  0  0  0  0  0  0
    0.6814    0.4752   -1.9434 H   0  0  0  0  0  0  0  0  0  0  0  0
    1.4272   -1.1764   -1.9783 H   0  0  0  0  0  0  0  0  0  0  0  0
  1  2  2  0
  1  5  1  0
  1  6  1  0
  2  3  2  0
  3  4  1  0
  3  7  1  0
  4  8  1  0
  4  9  1  0
  4 10  1  0
M  END
>  <reaction>  (1) 
rmg_rxn_14178

>  <type>  (1) 
r1h

>  <mol_properties>  (1) 
{"3": {"label": "donator", "atom_type": "Cs"}, "7": {"label": "d_hydrogen", "atom_type": "H0"}}

>  <electro_map>  (1) 
{"7": {"R": null, "A": null, "D": null}, "3": {"R": 1.0865264503043626, "A": null, "D": null}, "2": {"R": 1.4611621214822523, "A": 105.68269935194058, "D": null}, "1": {"R": 1.314116073405361, "A": 117.87659167082738, "D": 247.61993063472212}, "0": {"R": 1.2996148272423766, "A": 178.745384983752, "D": 68.94961962107271}, "4": {"R": 1.0853409260531879, "A": 121.33753645386717, "D": 24.865317588964704}, "5": {"R": 1.8513428119109534, "A": 31.487285812099586, "D": 179.81987911011038}, "6": {"R": 3.9248535274704417, "A": 75.84443843164908, "D": 345.4129013555425}, "8": {"R": 3.0905970681126904, "A": 74.67508490003924, "D": 80.15073021128094}, "9": {"R": 1.8125656379127193, "A": 52.70182769550824, "D": 168.8067822626286}}

$$$$

     RDKit          3D

 12 11  0  0  0  0  0  0  0  0999 V2000
   -0.0999    1.4625   -1.2959 C   0  0  0  0  0  0  0  0  0  0  0  0
   -0.2330    0.7586    0.0475 C   0  0  0  0  0  0  0  0  0  0  0  0
    0.2161   -0.6773   -0.0154 C   0  0  0  0  0  0  0  0  0  0  0  0
    0.1736   -1.3839    1.1684 O   0  0  0  0  0  0  0  0  0  0  0  0
   -0.4428    2.4955   -1.2333 H   0  0  0  0  0  0  0  0  0  0  0  0
    0.9397    1.4747   -1.6300 H   0  0  0  0  0  0  0  0  0  0  0  0
   -0.6907    0.9595   -2.0638 H   0  0  0  0  0  0  0  0  0  0  0  0
    0.3529    1.2832    0.8111 H   0  0  0  0  0  0  0  0  0  0  0  0
   -1.2775    0.7868    0.3804 H   0  0  0  0  0  0  0  0  0  0  0  0
    1.1824   -0.8396   -0.4921 H   0  0  0  0  0  0  0  0  0  0  0  0
   -0.7099   -1.3001    1.5421 H   0  0  0  0  0  0  0  0  0  0  0  0
   -0.5288   -1.1573   -0.6494 H   0  0  0  0  0  0  0  0  0  0  0  0
  1  2  1  0
  1  5  1  0
  1  6  1  0
  1  7  1  0
  2  3  1  0
  2  8  1  0
  2  9  1  0
  3  4  1  0
  3 10  1  0
  3 12  1  0
  4 11  1  0
M  END
>  <reaction>  (2) 
rmg_rxn_14178

>  <type>  (2) 
r2h

>  <mol_properties>  (2) 
{"2": {"label": "acceptor", "atom_type": "Cs"}, "11": {"label": "a_hydrogen", "atom_type": "H0"}}

>  <electro_map>  (2) 
{"11": {"R": null, "A": null, "D": null}, "2": {"R": 1.0896477198252252, "A": null, "D": null}, "3": {"R": 1.379308884924083, "A": 104.63717522355547, "D": null}, "1": {"R": 2.451981296107036, "A": 54.276486287297125, "D": 38.27606475156021}, "0": {"R": 1.5224928837251268, "A": 142.45495261187438, "D": 356.8067398763511}, "10": {"R": 4.007295868946342, "A": 16.873217940831626, "D": 36.50659801454517}, "4": {"R": 4.709676747821418, "A": 11.012712758541664, "D": 41.11513366506412}, "5": {"R": 1.763692693069963, "A": 73.17305551263745, "D": 333.54176362099344}, "6": {"R": 1.763966076414409, "A": 59.99299464205227, "D": 69.69329015045523}, "7": {"R": 3.075460452209234, "A": 54.95542234939279, "D": 294.3533811580465}, "8": {"R": 1.7579044572301168, "A": 55.0099633278297, "D": 179.28649313446365}, "9": {"R": 3.0753213730017244, "A": 58.46315793758044, "D": 59.975530905967915}}

$$$$

     RDKit          3D

 21 19  0  0  0  0  0  0  0  0999 V2000
    1.2407    2.1345   -1.2313 C   0  0  0  0  0  0  0  0  0  0  0  0
    1.1076    1.4306    0.1121 C   0  0  0  0  0  0  0  0  0  0  0  0
    1.5568   -0.0053    0.0493 C   0  0  0  0  0  3  0  0  0  0  0  0
    1.5143   -0.7119    1.2331 O   0  0  0  0  0  0  0  0  0  0  0  0
    0.8979    3.1675   -1.1687 H   0  0  0  0  0  0  0  0  0  0  0  0
    2.2803    2.1467   -1.5654 H   0  0  0  0  0  0  0  0  0  0  0  0
    0.6500    1.6315   -1.9991 H   0  0  0  0  0  0  0  0  0  0  0  0
    1.6936    1.9552    0.8757 H   0  0  0  0  0  0  0  0  0  0  0  0
    0.0631    1.4588    0.4450 H   0  0  0  0  0  0  0  0  0  0  0  0
    2.5230   -0.1676   -0.4275 H   0  0  0  0  0  0  0  0  0  0  0  0
    0.6308   -0.6281    1.6067 H   0  0  0  0  0  0  0  0  0  0  0  0
   -2.8638    0.0958    1.3427 C   0  0  0  0  0  0  0  0  0  0  0  0
   -2.0635   -0.7019    0.7007 C   0  0  0  0  0  0  0  0  0  0  0  0
   -1.2729   -1.5090    0.0295 C   0  0  0  0  0  0  0  0  0  0  0  0
   -0.5326   -1.1460   -1.1768 C   0  0  0  0  0  0  0  0  0  0  0  0
   -3.9283    0.1169    1.1322 H   0  0  0  0  0  0  0  0  0  0  0  0
   -2.4999    0.7675    2.1140 H   0  0  0  0  0  0  0  0  0  0  0  0
   -1.1077   -2.5000    0.4439 H   0  0  0  0  0  0  0  0  0  0  0  0
    0.6215   -0.6079   -0.7468 H   0  0  0  0  0  0  0  0  0  0  0  0
   -0.9644   -0.3336   -1.7557 H   0  0  0  0  0  0  0  0  0  0  0  0
   -0.2186   -1.9852   -1.7906 H   0  0  0  0  0  0  0  0  0  0  0  0
  1  2  1  0
  1  5  1  0
  1  6  1  0
  1  7  1  0
  2  3  1  0
  2  8  1  0
  2  9  1  0
  3  4  1  0
  3 10  1  0
  4 11  1  0
 12 13  2  0
 12 16  1  0
 12 17  1  0
 13 14  2  0
 14 15  1  0
 14 18  1  0
 15 19  1  0
 15 20  1  0
 15 21  1  0
M  RAD  1   3   2
M  END
>  <reaction>  (3) 
rmg_rxn_14178

>  <type>  (3) 
ts

>  <mol_properties>  (3) 
{"1": {"label": "*4", "atom_type": "Cs"}, "2": {"label": "*3", "atom_type": "Cs"}, "13": {"label": "*0", "atom_type": "Cd"}, "14": {"label": "*1", "atom_type": "Cs"}, "18": {"label": "*2", "atom_type": "H0"}}

$$$$
