
     RDKit          3D

  9  8  0  0  0  0  0  0  0  0999 V2000
   -0.7350    1.2360    0.5616 C   0  0  0  0  0  0  0  0  0  0  0  0
   -0.3036   -0.1582    0.8790 C   0  0  0  0  0  0  0  0  0  0  0  0
    0.4298   -0.8906   -0.1791 N   0  0  0  0  0  0  0  0  0  0  0  0
    0.6337   -0.2623   -1.1737 O   0  0  0  0  0  0  0  0  0  0  0  0
   -1.4610    1.1654   -0.2443 H   0  0  0  0  0  0  0  0  0  0  0  0
   -1.2907    1.7028    1.3713 H   0  0  0  0  0  0  0  0  0  0  0  0
    0.0405    1.8804    0.1562 H   0  0  0  0  0  0  0  0  0  0  0  0
   -1.1519   -0.8071    1.1228 H   0  0  0  0  0  0  0  0  0  0  0  0
    0.3699   -0.2200    1.7442 H   0  0  0  0  0  0  0  0  0  0  0  0
  1  2  1  0
  1  5  1  0
  1  6  1  0
  1  7  1  0
  2  3  1  0
  2  8  1  0
  2  9  1  0
  3  4  2  0
M  END
>  <reaction>  (1) 
rmg_rxn_2755

>  <type>  (1) 
r1h

>  <mol_properties>  (1) 
{"0": {"label": "donator", "atom_type": "Cs"}, "4": {"label": "d_hydrogen", "atom_type": "H0"}}

>  <electro_map>  (1) 
{"4": {"R": null, "A": null, "D": null}, "0": {"R": 1.0870472020180555, "A": null, "D": null}, "1": {"R": 1.4936165881732937, "A": 106.84563287347558, "D": null}, "2": {"R": 1.481098131852842, "A": 101.75568182936745, "D": 235.53597366408636}, "3": {"R": 1.1940568799123958, "A": 114.80115815125065, "D": 2.109169813454883}, "5": {"R": 3.7473669344821827, "A": 67.81810139620136, "D": 358.7739387646501}, "6": {"R": 1.8111748948726334, "A": 38.58200643577021, "D": 139.7716657572598}, "7": {"R": 3.094924087456217, "A": 54.69957018442953, "D": 347.6108053587636}, "8": {"R": 1.7454505094026371, "A": 58.884409617274834, "D": 258.747358710289}}

$$$$

     RDKit          3D

  9  8  0  0  0  0  0  0  0  0999 V2000
    1.1326    0.7140   -1.1369 C   0  0  0  0  0  0  0  0  0  0  0  0
   -0.2025    0.7217   -0.4495 C   0  0  0  0  0  0  0  0  0  0  0  0
   -0.4452   -0.6299    0.7458 S   0  0  0  0  0  0  0  0  0  0  0  0
    1.3837   -0.2170   -1.6413 H   0  0  0  0  0  0  0  0  0  0  0  0
    1.3056    1.5790   -1.7758 H   0  0  0  0  0  0  0  0  0  0  0  0
   -1.0249    0.6964   -1.1679 H   0  0  0  0  0  0  0  0  0  0  0  0
   -0.3286    1.6323    0.1396 H   0  0  0  0  0  0  0  0  0  0  0  0
   -0.3625   -1.6357   -0.1355 H   0  0  0  0  0  0  0  0  0  0  0  0
    1.8976    0.8120   -0.3685 H   0  0  0  0  0  0  0  0  0  0  0  0
  1  2  1  0
  1  4  1  0
  1  5  1  0
  1  9  1  0
  2  3  1  0
  2  6  1  0
  2  7  1  0
  3  8  1  0
M  END
>  <reaction>  (2) 
rmg_rxn_2755

>  <type>  (2) 
r2h

>  <mol_properties>  (2) 
{"0": {"label": "acceptor", "atom_type": "Cs"}, "8": {"label": "a_hydrogen", "atom_type": "H0"}}

>  <electro_map>  (2) 
{"8": {"R": null, "A": null, "D": null}, "0": {"R": 1.08868220515666, "A": null, "D": null}, "1": {"R": 1.5017223007164935, "A": 107.52468532242143, "D": null}, "2": {"R": 1.8206112988863632, "A": 98.02889155143558, "D": 126.94914149604827}, "7": {"R": 1.339828669071126, "A": 96.73288504388397, "D": 296.88425453334315}, "3": {"R": 2.707321878000219, "A": 90.70389453400342, "D": 32.052735964622286}, "4": {"R": 1.8026579967780296, "A": 122.38737935287449, "D": 326.98909999818363}, "5": {"R": 2.5650225992675812, "A": 71.27053714791614, "D": 335.22465767968583}, "6": {"R": 1.7522235096101797, "A": 68.41316669274204, "D": 112.78741038436178}}

$$$$

     RDKit          3D

 17 15  0  0  0  0  0  0  0  0999 V2000
   -0.5844    1.2122   -1.1744 C   0  0  0  0  0  3  0  0  0  0  0  0
   -1.9195    1.2199   -0.4869 C   0  0  0  0  0  0  0  0  0  0  0  0
   -2.1621   -0.1318    0.7084 S   0  0  0  0  0  0  0  0  0  0  0  0
   -0.3333    0.2812   -1.6788 H   0  0  0  0  0  0  0  0  0  0  0  0
   -0.4114    2.0772   -1.8133 H   0  0  0  0  0  0  0  0  0  0  0  0
   -2.7418    1.1946   -1.2054 H   0  0  0  0  0  0  0  0  0  0  0  0
   -2.0456    2.1305    0.1022 H   0  0  0  0  0  0  0  0  0  0  0  0
   -2.0794   -1.1375   -0.1729 H   0  0  0  0  0  0  0  0  0  0  0  0
    1.2528    1.4201    0.7657 C   0  0  0  0  0  0  0  0  0  0  0  0
    1.6843    0.0258    1.0830 C   0  0  0  0  0  0  0  0  0  0  0  0
    2.4176   -0.7066    0.0250 N   0  0  0  0  0  0  0  0  0  0  0  0
    2.6215   -0.0783   -0.9697 O   0  0  0  0  0  0  0  0  0  0  0  0
    0.3577    1.3329   -0.2280 H   0  0  0  0  0  0  0  0  0  0  0  0
    0.6971    1.8868    1.5754 H   0  0  0  0  0  0  0  0  0  0  0  0
    2.0283    2.0644    0.3602 H   0  0  0  0  0  0  0  0  0  0  0  0
    0.8359   -0.6230    1.3268 H   0  0  0  0  0  0  0  0  0  0  0  0
    2.3577   -0.0360    1.9482 H   0  0  0  0  0  0  0  0  0  0  0  0
  1  2  1  0
  1  4  1  0
  1  5  1  0
  2  3  1  0
  2  6  1  0
  2  7  1  0
  3  8  1  0
  9 10  1  0
  9 13  1  0
  9 14  1  0
  9 15  1  0
 10 11  1  0
 10 16  1  0
 10 17  1  0
 11 12  2  0
M  RAD  1   1   2
M  END
>  <reaction>  (3) 
rmg_rxn_2755

>  <type>  (3) 
ts

>  <mol_properties>  (3) 
{"0": {"label": "*3", "atom_type": "Cs"}, "1": {"label": "*4", "atom_type": "Cs"}, "8": {"label": "*1", "atom_type": "Cs"}, "9": {"label": "*0", "atom_type": "Cs"}, "12": {"label": "*2", "atom_type": "H0"}}

$$$$
