
     RDKit          3D

 10  9  0  0  0  0  0  0  0  0999 V2000
   -0.8756    1.6699   -0.1475 C   0  0  0  0  0  0  0  0  0  0  0  0
   -0.2359    0.6130    0.1822 C   0  0  0  0  0  0  0  0  0  0  0  0
    0.3212   -0.5286    0.5191 C   0  0  0  0  0  0  0  0  0  0  0  0
    0.7550   -1.5801   -0.4579 C   0  0  0  0  0  0  0  0  0  0  0  0
   -1.9511    1.5837   -0.1982 H   0  0  0  0  0  0  0  0  0  0  0  0
   -0.5085    2.6552   -0.3944 H   0  0  0  0  0  0  0  0  0  0  0  0
    0.4957   -0.7198    1.5739 H   0  0  0  0  0  0  0  0  0  0  0  0
    1.8287   -1.7667   -0.3764 H   0  0  0  0  0  0  0  0  0  0  0  0
    0.5338   -1.2824   -1.4819 H   0  0  0  0  0  0  0  0  0  0  0  0
    0.2476   -2.5267   -0.2545 H   0  0  0  0  0  0  0  0  0  0  0  0
  1  2  2  0
  1  5  1  0
  1  6  1  0
  2  3  2  0
  3  4  1  0
  3  7  1  0
  4  8  1  0
  4  9  1  0
  4 10  1  0
M  END
>  <reaction>  (1) 
rmg_rxn_14019

>  <type>  (1) 
r1h

>  <mol_properties>  (1) 
{"0": {"label": "donator", "atom_type": "Cd"}, "4": {"label": "d_hydrogen", "atom_type": "H0"}}

>  <electro_map>  (1) 
{"4": {"R": null, "A": null, "D": null}, "0": {"R": 1.0801525124841538, "A": null, "D": null}, "1": {"R": 1.2785678795737097, "A": 116.38031346314612, "D": null}, "2": {"R": 1.3142232481331064, "A": 146.18862882454795, "D": 180.74983662085842}, "3": {"R": 1.4994278452355174, "A": 124.3849881629151, "D": 85.05806565323648}, "5": {"R": 4.420186613467352, "A": 40.184232680856475, "D": 13.230588853039015}, "6": {"R": 4.034086899993507, "A": 30.026705667311077, "D": 6.7626027710007826}, "7": {"R": 2.583921816667617, "A": 95.6869128018747, "D": 22.299184518940795}, "8": {"R": 1.7701629791010647, "A": 89.03584713891041, "D": 315.86387271233434}, "9": {"R": 1.7711253953823294, "A": 59.54527586106309, "D": 292.53747689501057}}

$$$$

     RDKit          3D

  9  8  0  0  0  0  0  0  0  0999 V2000
    0.9518    1.4308   -0.2638 C   0  0  0  0  0  0  0  0  0  0  0  0
    0.8592   -0.0003    0.1548 C   0  0  0  0  0  0  0  0  0  0  0  0
   -0.8304   -0.6893    0.0254 S   0  0  0  0  0  0  0  0  0  0  0  0
    0.6831    1.6296   -1.2982 H   0  0  0  0  0  0  0  0  0  0  0  0
    0.5209    2.1492    0.4305 H   0  0  0  0  0  0  0  0  0  0  0  0
    1.2251   -0.1452    1.1702 H   0  0  0  0  0  0  0  0  0  0  0  0
    1.4583   -0.6356   -0.4996 H   0  0  0  0  0  0  0  0  0  0  0  0
   -1.4053    0.1422    0.9041 H   0  0  0  0  0  0  0  0  0  0  0  0
    2.0183    1.6406   -0.2250 H   0  0  0  0  0  0  0  0  0  0  0  0
  1  2  1  0
  1  4  1  0
  1  5  1  0
  1  9  1  0
  2  3  1  0
  2  6  1  0
  2  7  1  0
  3  8  1  0
M  END
>  <reaction>  (2) 
rmg_rxn_14019

>  <type>  (2) 
r2h

>  <mol_properties>  (2) 
{"0": {"label": "acceptor", "atom_type": "Cs"}, "8": {"label": "a_hydrogen", "atom_type": "H0"}}

>  <electro_map>  (2) 
{"8": {"R": null, "A": null, "D": null}, "0": {"R": 1.087591873322093, "A": null, "D": null}, "1": {"R": 1.4938556873170243, "A": 103.6330027731968, "D": null}, "2": {"R": 1.829257581648443, "A": 144.37059518709484, "D": 8.988811186077038}, "7": {"R": 1.339440065299664, "A": 96.67354288674666, "D": 298.20243124736}, "3": {"R": 3.379974654966053, "A": 65.19749059272053, "D": 44.63075309474276}, "4": {"R": 1.8123634550028274, "A": 56.58905839969969, "D": 216.24000657241726}, "5": {"R": 2.511448016488967, "A": 89.65198545784502, "D": 59.469859182561606}, "6": {"R": 1.7558454570282302, "A": 90.70399708288875, "D": 2.4970556641454875}}

$$$$

     RDKit          3D

 18 16  0  0  0  0  0  0  0  0999 V2000
   -1.1049    1.3375   -0.2509 C   0  0  0  0  0  3  0  0  0  0  0  0
   -1.1976   -0.0936    0.1676 C   0  0  0  0  0  0  0  0  0  0  0  0
   -2.8871   -0.7826    0.0382 S   0  0  0  0  0  0  0  0  0  0  0  0
   -1.3737    1.5363   -1.2854 H   0  0  0  0  0  0  0  0  0  0  0  0
   -1.5359    2.0559    0.4433 H   0  0  0  0  0  0  0  0  0  0  0  0
   -0.8316   -0.2385    1.1830 H   0  0  0  0  0  0  0  0  0  0  0  0
   -0.5984   -0.7289   -0.4868 H   0  0  0  0  0  0  0  0  0  0  0  0
   -3.4621    0.0489    0.9170 H   0  0  0  0  0  0  0  0  0  0  0  0
    1.5412    1.7065   -0.1407 C   0  0  0  0  0  0  0  0  0  0  0  0
    2.1809    0.6497    0.1889 C   0  0  0  0  0  0  0  0  0  0  0  0
    2.7380   -0.4919    0.5259 C   0  0  0  0  0  0  0  0  0  0  0  0
    3.1718   -1.5434   -0.4511 C   0  0  0  0  0  0  0  0  0  0  0  0
    0.2408    1.6023   -0.2020 H   0  0  0  0  0  0  0  0  0  0  0  0
    1.9084    2.6919   -0.3876 H   0  0  0  0  0  0  0  0  0  0  0  0
    2.9125   -0.6832    1.5807 H   0  0  0  0  0  0  0  0  0  0  0  0
    4.2455   -1.7301   -0.3697 H   0  0  0  0  0  0  0  0  0  0  0  0
    2.9506   -1.2457   -1.4752 H   0  0  0  0  0  0  0  0  0  0  0  0
    2.6645   -2.4900   -0.2477 H   0  0  0  0  0  0  0  0  0  0  0  0
  1  2  1  0
  1  4  1  0
  1  5  1  0
  2  3  1  0
  2  6  1  0
  2  7  1  0
  3  8  1  0
  9 10  2  0
  9 13  1  0
  9 14  1  0
 10 11  2  0
 11 12  1  0
 11 15  1  0
 12 16  1  0
 12 17  1  0
 12 18  1  0
M  RAD  1   1   2
M  END
>  <reaction>  (3) 
rmg_rxn_14019

>  <type>  (3) 
ts

>  <mol_properties>  (3) 
{"0": {"label": "*3", "atom_type": "Cs"}, "1": {"label": "*4", "atom_type": "Cs"}, "8": {"label": "*1", "atom_type": "Cd"}, "9": {"label": "*0", "atom_type": "Cdd"}, "12": {"label": "*2", "atom_type": "H0"}}

$$$$
