
     RDKit          3D

 10  9  0  0  0  0  0  0  0  0999 V2000
    0.3813   -1.5870   -1.1159 C   0  0  0  0  0  0  0  0  0  0  0  0
    0.1984   -0.4748   -0.4294 C   0  0  0  0  0  0  0  0  0  0  0  0
    0.1209    0.6454    0.1608 C   0  0  0  0  0  0  0  0  0  0  0  0
   -0.6480    1.2764    1.2621 C   0  0  0  0  0  0  0  0  0  0  0  0
   -0.1732   -1.7806   -2.0260 H   0  0  0  0  0  0  0  0  0  0  0  0
    1.0802   -2.3416   -0.7754 H   0  0  0  0  0  0  0  0  0  0  0  0
    0.8491    1.3190   -0.2912 H   0  0  0  0  0  0  0  0  0  0  0  0
    0.0234    1.6026    2.0584 H   0  0  0  0  0  0  0  0  0  0  0  0
   -1.3694    0.5735    1.6815 H   0  0  0  0  0  0  0  0  0  0  0  0
   -1.1851    2.1554    0.9027 H   0  0  0  0  0  0  0  0  0  0  0  0
  1  2  2  0
  1  5  1  0
  1  6  1  0
  2  3  2  0
  3  4  1  0
  3  7  1  0
  4  8  1  0
  4  9  1  0
  4 10  1  0
M  END
>  <reaction>  (1) 
rmg_rxn_14131

>  <type>  (1) 
r1h

>  <mol_properties>  (1) 
{"2": {"label": "donator", "atom_type": "Cd"}, "6": {"label": "d_hydrogen", "atom_type": "H0"}}

>  <electro_map>  (1) 
{"6": {"R": null, "A": null, "D": null}, "2": {"R": 1.0900000456713745, "A": null, "D": null}, "1": {"R": 1.2685998404956076, "A": 108.17487459261771, "D": null}, "0": {"R": 1.3196900384559218, "A": 141.32069385325278, "D": 180.45015392586248}, "3": {"R": 3.8618142763084435, "A": 10.853923140165872, "D": 175.61458751952955}, "4": {"R": 4.514726278767339, "A": 11.880137081903742, "D": 94.41501681639836}, "5": {"R": 1.857339273535455, "A": 77.59190970730322, "D": 7.148713170970069}, "7": {"R": 4.970318048996333, "A": 90.03952645875616, "D": 356.47247951031306}, "8": {"R": 1.7722335963879072, "A": 65.48581804084624, "D": 56.828231921165234}, "9": {"R": 1.772828858917195, "A": 59.575173052519844, "D": 253.3017777664718}}

$$$$

     RDKit          3D

 11 10  0  0  0  0  0  0  0  0999 V2000
    1.5521   -0.9467    1.5971 C   0  0  0  0  0  0  0  0  0  0  0  0
    0.5128   -0.1956    0.8295 C   0  0  0  0  0  0  0  0  0  0  0  0
    0.2882   -0.3977   -0.4591 C   0  0  0  0  0  0  0  0  0  0  0  0
   -0.6416    0.2192   -1.2488 O   0  0  0  0  0  0  0  0  0  0  0  0
   -1.3738    1.1563   -0.5823 O   0  0  0  0  0  0  0  0  0  0  0  0
    2.2869   -0.2646    2.0320 H   0  0  0  0  0  0  0  0  0  0  0  0
    1.1026   -1.5015    2.4246 H   0  0  0  0  0  0  0  0  0  0  0  0
    2.0855   -1.6582    0.9650 H   0  0  0  0  0  0  0  0  0  0  0  0
   -0.0739    0.5484    1.3520 H   0  0  0  0  0  0  0  0  0  0  0  0
    0.8285   -1.1150   -1.0653 H   0  0  0  0  0  0  0  0  0  0  0  0
   -2.0747    0.6367   -0.1818 H   0  0  0  0  0  0  0  0  0  0  0  0
  1  2  1  0
  1  6  1  0
  1  7  1  0
  1  8  1  0
  2  3  2  3
  2  9  1  0
  3  4  1  0
  3 10  1  0
  4  5  1  0
  5 11  1  0
M  END
>  <reaction>  (2) 
rmg_rxn_14131

>  <type>  (2) 
r2h

>  <mol_properties>  (2) 
{"4": {"label": "acceptor", "atom_type": "O2s"}, "10": {"label": "a_hydrogen", "atom_type": "H0"}}

>  <electro_map>  (2) 
{"10": {"R": null, "A": null, "D": null}, "4": {"R": 0.959999898622428, "A": null, "D": null}, "3": {"R": 1.3633265446786904, "A": 102.94565141097435, "D": null}, "2": {"R": 1.366957901340592, "A": 107.34064776267819, "D": 106.32093618463358}, "1": {"R": 1.3235641707113348, "A": 127.50927561754763, "D": 1.277442088538964}, "0": {"R": 1.4945113376660866, "A": 122.77464734700497, "D": 179.20099831386526}, "5": {"R": 1.0928111815560526, "A": 111.0000025097761, "D": 120.8738653567758}, "6": {"R": 1.7569295064151222, "A": 36.51028766855879, "D": 121.20759380721726}, "7": {"R": 1.7666647221296634, "A": 60.18100281166621, "D": 37.47719749002329}, "8": {"R": 3.111568424885453, "A": 56.511761346799766, "D": 292.5935973726198}, "9": {"R": 3.0699782638525868, "A": 46.671479033635784, "D": 217.1548974314154}}

$$$$

     RDKit          3D

 20 18  0  0  0  0  0  0  0  0999 V2000
    2.9348   -0.5546    1.4045 C   0  0  0  0  0  0  0  0  0  0  0  0
    1.8955    0.1964    0.6368 C   0  0  0  0  0  0  0  0  0  0  0  0
    1.6709   -0.0057   -0.6518 C   0  0  0  0  0  0  0  0  0  0  0  0
    0.7411    0.6113   -1.4414 O   0  0  0  0  0  0  0  0  0  0  0  0
    0.0089    1.5484   -0.7749 O   0  0  0  0  0  0  0  0  0  0  0  0
    3.6696    0.1275    1.8393 H   0  0  0  0  0  0  0  0  0  0  0  0
    2.4853   -1.1095    2.2319 H   0  0  0  0  0  0  0  0  0  0  0  0
    3.4682   -1.2661    0.7723 H   0  0  0  0  0  0  0  0  0  0  0  0
    1.3088    0.9405    1.1593 H   0  0  0  0  0  0  0  0  0  0  0  0
    2.2112   -0.7229   -1.2580 H   0  0  0  0  0  0  0  0  0  0  0  0
   -1.4954   -2.1533   -1.0000 C   0  0  0  0  0  0  0  0  0  0  0  0
   -1.6783   -1.0411   -0.3136 C   0  0  0  0  0  0  0  0  0  0  0  0
   -1.7558    0.0791    0.2767 C   0  0  0  0  0  3  0  0  0  0  0  0
   -2.5247    0.7101    1.3780 C   0  0  0  0  0  0  0  0  0  0  0  0
   -2.0498   -2.3469   -1.9101 H   0  0  0  0  0  0  0  0  0  0  0  0
   -0.7965   -2.9079   -0.6596 H   0  0  0  0  0  0  0  0  0  0  0  0
   -0.8789    0.8902   -0.2676 H   0  0  0  0  0  0  0  0  0  0  0  0
   -1.8533    1.0363    2.1742 H   0  0  0  0  0  0  0  0  0  0  0  0
   -3.2461    0.0072    1.7974 H   0  0  0  0  0  0  0  0  0  0  0  0
   -3.0618    1.5891    1.0186 H   0  0  0  0  0  0  0  0  0  0  0  0
  1  2  1  0
  1  6  1  0
  1  7  1  0
  1  8  1  0
  2  3  2  3
  2  9  1  0
  3  4  1  0
  3 10  1  0
  4  5  1  0
  5 17  1  0
 11 12  2  0
 11 15  1  0
 11 16  1  0
 12 13  2  0
 13 14  1  0
 14 18  1  0
 14 19  1  0
 14 20  1  0
M  RAD  1  13   2
M  END
>  <reaction>  (3) 
rmg_rxn_14131

>  <type>  (3) 
ts

>  <mol_properties>  (3) 
{"3": {"label": "*0", "atom_type": "O2s"}, "4": {"label": "*1", "atom_type": "O2s"}, "11": {"label": "*4", "atom_type": "Cdd"}, "12": {"label": "*3", "atom_type": "Cd"}, "16": {"label": "*2", "atom_type": "H0"}}

$$$$
