
     RDKit          3D

 10  9  0  0  0  0  0  0  0  0999 V2000
   -1.2281   -1.1499    0.8450 C   0  0  0  0  0  0  0  0  0  0  0  0
   -0.5116   -0.4571    0.0504 C   0  0  0  0  0  0  0  0  0  0  0  0
    0.1797    0.3781   -0.6983 C   0  0  0  0  0  0  0  0  0  0  0  0
    1.4129    1.0882   -0.2362 C   0  0  0  0  0  0  0  0  0  0  0  0
   -1.9565   -0.5910    1.4149 H   0  0  0  0  0  0  0  0  0  0  0  0
   -1.2165   -2.2075    1.0661 H   0  0  0  0  0  0  0  0  0  0  0  0
   -0.1586    0.5564   -1.7151 H   0  0  0  0  0  0  0  0  0  0  0  0
    1.6284    0.8638    0.8064 H   0  0  0  0  0  0  0  0  0  0  0  0
    1.2830    2.1684   -0.3373 H   0  0  0  0  0  0  0  0  0  0  0  0
    2.2729    0.8065   -0.8490 H   0  0  0  0  0  0  0  0  0  0  0  0
  1  2  2  0
  1  5  1  0
  1  6  1  0
  2  3  2  0
  3  4  1  0
  3  7  1  0
  4  8  1  0
  4  9  1  0
  4 10  1  0
M  END
>  <reaction>  (1) 
rmg_rxn_14074

>  <type>  (1) 
r1h

>  <mol_properties>  (1) 
{"0": {"label": "donator", "atom_type": "Cd"}, "4": {"label": "d_hydrogen", "atom_type": "H0"}}

>  <electro_map>  (1) 
{"4": {"R": null, "A": null, "D": null}, "0": {"R": 1.0805788173040358, "A": null, "D": null}, "1": {"R": 1.2746080974323442, "A": 115.2478945385921, "D": null}, "2": {"R": 1.3175593004145763, "A": 144.34399378643374, "D": 182.67648110128}, "3": {"R": 1.4962609100581414, "A": 123.90514451471276, "D": 74.0451497508582}, "5": {"R": 4.4127231962904805, "A": 41.020178875946876, "D": 11.951096280646892}, "6": {"R": 4.0611882366111125, "A": 30.046115607376038, "D": 5.879469795595487}, "7": {"R": 3.105765082657931, "A": 70.2002709967922, "D": 356.9165469021473}, "8": {"R": 1.7689980888938608, "A": 55.6490510280011, "D": 205.2341864366176}, "9": {"R": 1.7596781684575225, "A": 60.48915271904275, "D": 291.8096705862383}}

$$$$

     RDKit          3D

 14 13  0  0  0  0  0  0  0  0999 V2000
   -0.3495   -2.5197   -1.2816 H   0  0  0  0  0  0  0  0  0  0  0  0
   -0.0184    2.2691    0.5079 C   0  0  0  0  0  0  0  0  0  0  0  0
    0.0576    1.2359    1.3302 C   0  0  0  0  0  0  0  0  0  0  0  0
    0.5265   -0.1408    0.9599 C   0  0  0  0  0  0  0  0  0  0  0  0
    0.7746   -0.3100   -0.4156 O   0  0  0  0  0  0  0  0  0  0  0  0
   -0.3593   -0.6582   -1.1675 C   0  0  0  0  0  0  0  0  0  0  0  0
   -0.9051   -1.8615   -0.8578 O   0  0  0  0  0  0  0  0  0  0  0  0
   -0.3622    3.2361    0.8512 H   0  0  0  0  0  0  0  0  0  0  0  0
    0.2696    2.1794   -0.5326 H   0  0  0  0  0  0  0  0  0  0  0  0
   -0.2262    1.3531    2.3728 H   0  0  0  0  0  0  0  0  0  0  0  0
   -0.1965   -0.8871    1.3095 H   0  0  0  0  0  0  0  0  0  0  0  0
    1.4662   -0.3527    1.4779 H   0  0  0  0  0  0  0  0  0  0  0  0
   -0.0249   -0.6164   -2.2158 H   0  0  0  0  0  0  0  0  0  0  0  0
   -1.1632    0.0859   -1.0332 H   0  0  0  0  0  0  0  0  0  0  0  0
  1  7  1  0
  2  3  2  3
  2  8  1  0
  2  9  1  0
  3  4  1  0
  3 10  1  0
  4  5  1  0
  4 11  1  0
  4 12  1  0
  5  6  1  0
  6  7  1  0
  6 13  1  0
  6 14  1  0
M  END
>  <reaction>  (2) 
rmg_rxn_14074

>  <type>  (2) 
r2h

>  <mol_properties>  (2) 
{"0": {"label": "a_hydrogen", "atom_type": "H0"}, "6": {"label": "acceptor", "atom_type": "O2s"}}

>  <electro_map>  (2) 
{"0": {"R": null, "A": null, "D": null}, "6": {"R": 0.9600000848869445, "A": null, "D": null}, "5": {"R": 1.3570177094042581, "A": 105.92995377451201, "D": null}, "4": {"R": 1.4044499214400226, "A": 106.02021691142534, "D": 112.5689794956016}, "3": {"R": 1.4078940212343634, "A": 114.24461124571772, "D": 295.87688682149417}, "2": {"R": 1.500748606480211, "A": 113.9758135220205, "D": 274.09915880565916}, "1": {"R": 1.32268532159427, "A": 125.53084399816116, "D": 354.0137105410425}, "7": {"R": 1.0822106498425477, "A": 121.268491706752, "D": 180.37318143389942}, "8": {"R": 1.852211496433588, "A": 31.223324914609407, "D": 179.49682606479982}, "9": {"R": 3.061065805111059, "A": 52.38501530030738, "D": 359.5003751512221}, "10": {"R": 2.4799445612156092, "A": 80.49892191680894, "D": 161.07995125830223}, "11": {"R": 1.754536810609725, "A": 72.2482101355868, "D": 78.02159984825956}, "12": {"R": 3.9920705640056626, "A": 62.42799254356284, "D": 248.4007461693102}, "13": {"R": 1.7853856179361578, "A": 66.37686308792354, "D": 41.70552291592838}}

$$$$

     RDKit          3D

 23 21  0  0  0  0  0  0  0  0999 V2000
   -0.2049   -2.7662   -1.0700 C   0  0  0  0  0  0  0  0  0  0  0  0
    0.5115   -2.0734   -1.8646 C   0  0  0  0  0  0  0  0  0  0  0  0
    1.2029   -1.2383   -2.6133 C   0  0  0  0  0  0  0  0  0  0  0  0
    2.4361   -0.5281   -2.1512 C   0  0  0  0  0  0  0  0  0  0  0  0
   -1.0347   -2.1296   -0.4208 H   0  0  0  0  0  0  0  0  0  0  0  0
   -0.1933   -3.8239   -0.8489 H   0  0  0  0  0  0  0  0  0  0  0  0
    0.8645   -1.0599   -3.6301 H   0  0  0  0  0  0  0  0  0  0  0  0
    2.6516   -0.7525   -1.1086 H   0  0  0  0  0  0  0  0  0  0  0  0
    2.3062    0.5520   -2.2523 H   0  0  0  0  0  0  0  0  0  0  0  0
    3.2961   -0.8098   -2.7640 H   0  0  0  0  0  0  0  0  0  0  0  0
   -0.9034    2.8959    1.5210 C   0  0  0  0  0  0  0  0  0  0  0  0
   -0.8274    1.8627    2.3433 C   0  0  0  0  0  0  0  0  0  0  0  0
   -0.3584    0.4860    1.9731 C   0  0  0  0  0  0  0  0  0  0  0  0
   -0.1104    0.3168    0.5976 O   0  0  0  0  0  0  0  0  0  0  0  0
   -1.2443   -0.0315   -0.1544 C   0  0  0  0  0  0  0  0  0  0  0  0
   -1.7901   -1.2347    0.1553 O   0  0  0  0  0  1  0  0  0  0  0  0
   -1.2472    3.8629    1.8643 H   0  0  0  0  0  0  0  0  0  0  0  0
   -0.6154    2.8062    0.4805 H   0  0  0  0  0  0  0  0  0  0  0  0
   -1.1112    1.9799    3.3860 H   0  0  0  0  0  0  0  0  0  0  0  0
   -1.0814   -0.2603    2.3227 H   0  0  0  0  0  0  0  0  0  0  0  0
    0.5812    0.2741    2.4910 H   0  0  0  0  0  0  0  0  0  0  0  0
   -0.9099    0.0104   -1.2027 H   0  0  0  0  0  0  0  0  0  0  0  0
   -2.0482    0.7127   -0.0201 H   0  0  0  0  0  0  0  0  0  0  0  0
  1  2  2  0
  1  5  1  0
  1  6  1  0
  2  3  2  0
  3  4  1  0
  3  7  1  0
  4  8  1  0
  4  9  1  0
  4 10  1  0
 11 12  2  3
 11 17  1  0
 11 18  1  0
 12 13  1  0
 12 19  1  0
 13 14  1  0
 13 20  1  0
 13 21  1  0
 14 15  1  0
 15 16  1  0
 15 22  1  0
 15 23  1  0
M  RAD  1  16   2
M  END
>  <reaction>  (3) 
rmg_rxn_14074

>  <type>  (3) 
ts

>  <mol_properties>  (3) 
{"0": {"label": "*1", "atom_type": "Cd"}, "1": {"label": "*0", "atom_type": "Cdd"}, "4": {"label": "*2", "atom_type": "H0"}, "14": {"label": "*4", "atom_type": "Cs"}, "15": {"label": "*3", "atom_type": "O2s"}}

$$$$
