
     RDKit          3D

 10  9  0  0  0  0  0  0  0  0999 V2000
   -1.3403   -0.8803    1.1283 C   0  0  0  0  0  0  0  0  0  0  0  0
   -0.3753   -0.4219    0.3629 C   0  0  0  0  0  0  0  0  0  0  0  0
    0.5991   -0.0559   -0.3793 C   0  0  0  0  0  0  0  0  0  0  0  0
    1.0067    1.2293   -1.0075 C   0  0  0  0  0  0  0  0  0  0  0  0
   -2.2482   -1.2894    0.7012 H   0  0  0  0  0  0  0  0  0  0  0  0
   -1.2645   -0.8434    2.2086 H   0  0  0  0  0  0  0  0  0  0  0  0
    1.3188   -0.8478   -0.5866 H   0  0  0  0  0  0  0  0  0  0  0  0
    0.3433    2.0441   -0.7141 H   0  0  0  0  0  0  0  0  0  0  0  0
    0.9909    1.1444   -2.0964 H   0  0  0  0  0  0  0  0  0  0  0  0
    2.0295    1.4757   -0.7175 H   0  0  0  0  0  0  0  0  0  0  0  0
  1  2  2  0
  1  5  1  0
  1  6  1  0
  2  3  2  0
  3  4  1  0
  3  7  1  0
  4  8  1  0
  4  9  1  0
  4 10  1  0
M  END
>  <reaction>  (1) 
rmg_rxn_13915

>  <type>  (1) 
r1h

>  <mol_properties>  (1) 
{"2": {"label": "donator", "atom_type": "Cd"}, "6": {"label": "d_hydrogen", "atom_type": "H0"}}

>  <electro_map>  (1) 
{"6": {"R": null, "A": null, "D": null}, "2": {"R": 1.0899999909882152, "A": null, "D": null}, "1": {"R": 1.2783790615677855, "A": 113.9358286569325, "D": null}, "0": {"R": 1.3143041563146984, "A": 146.00327467876704, "D": 179.9723375580032}, "3": {"R": 3.810649360127143, "A": 13.643620599082771, "D": 177.91449921168302}, "4": {"R": 4.456263028803929, "A": 12.121601265157787, "D": 97.74377103185672}, "5": {"R": 1.8544298978110187, "A": 77.7780801089669, "D": 8.954194264358893}, "7": {"R": 4.411903812234928, "A": 79.17717383080587, "D": 14.380626341694212}, "8": {"R": 1.771882303750999, "A": 108.52241075107219, "D": 302.67259057520994}, "9": {"R": 1.7578075493636884, "A": 60.54424469928152, "D": 271.7193657609101}}

$$$$

     RDKit          3D

 15 14  0  0  0  0  0  0  0  0999 V2000
   -1.6535    0.2135   -0.6349 H   0  0  0  0  0  0  0  0  0  0  0  0
   -1.6833   -1.8265   -0.4516 C   0  0  0  0  0  0  0  0  0  0  0  0
   -0.9062   -0.5730   -0.7303 C   0  0  0  0  0  0  0  0  0  0  0  0
    0.1218   -0.1959    0.2888 C   0  0  0  0  0  0  0  0  0  0  0  0
    0.7130    1.0275   -0.0692 O   0  0  0  0  0  0  0  0  0  0  0  0
    1.6644    1.4637    0.8620 C   0  0  0  0  0  0  0  0  0  0  0  0
   -2.4496   -1.9885   -1.2098 H   0  0  0  0  0  0  0  0  0  0  0  0
   -2.1822   -1.7688    0.5191 H   0  0  0  0  0  0  0  0  0  0  0  0
   -1.0336   -2.7089   -0.4400 H   0  0  0  0  0  0  0  0  0  0  0  0
   -0.5527   -0.4599   -1.7541 H   0  0  0  0  0  0  0  0  0  0  0  0
   -0.3488   -0.1178    1.2818 H   0  0  0  0  0  0  0  0  0  0  0  0
    0.8961   -0.9805    0.3620 H   0  0  0  0  0  0  0  0  0  0  0  0
    1.2153    1.6204    1.8516 H   0  0  0  0  0  0  0  0  0  0  0  0
    2.4863    0.7426    0.9649 H   0  0  0  0  0  0  0  0  0  0  0  0
    2.0676    2.4092    0.5023 H   0  0  0  0  0  0  0  0  0  0  0  0
  1  3  1  0
  2  3  1  0
  2  7  1  0
  2  8  1  0
  2  9  1  0
  3  4  1  0
  3 10  1  0
  4  5  1  0
  4 11  1  0
  4 12  1  0
  5  6  1  0
  6 13  1  0
  6 14  1  0
  6 15  1  0
M  END
>  <reaction>  (2) 
rmg_rxn_13915

>  <type>  (2) 
r2h

>  <mol_properties>  (2) 
{"0": {"label": "a_hydrogen", "atom_type": "H0"}, "2": {"label": "acceptor", "atom_type": "Cs"}}

>  <electro_map>  (2) 
{"0": {"R": null, "A": null, "D": null}, "2": {"R": 1.0890520836921724, "A": null, "D": null}, "3": {"R": 1.4958150818259404, "A": 103.29105590821462, "D": null}, "4": {"R": 1.405141478301482, "A": 94.35652601169991, "D": 121.48073075409128}, "5": {"R": 1.4009264315989702, "A": 112.79965017381538, "D": 178.3791049415317}, "1": {"R": 4.87424130527018, "A": 31.15652421823673, "D": 357.3141632916978}, "6": {"R": 1.0900855667755884, "A": 140.40526852313263, "D": 352.0469473724128}, "7": {"R": 1.7632708764267575, "A": 36.180523303553734, "D": 243.2338972014193}, "8": {"R": 1.7671913693332557, "A": 60.005330906668625, "D": 322.15864938747376}, "9": {"R": 2.6487947746262184, "A": 86.30475738722458, "D": 63.52112650994308}, "10": {"R": 3.0619034478072376, "A": 67.36024119039561, "D": 51.04191809279546}, "11": {"R": 1.772017460769324, "A": 58.51557534897714, "D": 73.05908808646932}, "12": {"R": 3.0142480740686173, "A": 52.97088428395644, "D": 114.18677325613318}, "13": {"R": 1.7810364980068953, "A": 53.43737952013014, "D": 178.328878972299}, "14": {"R": 1.7795736891046725, "A": 59.99730214301077, "D": 120.86153538560116}}

$$$$

     RDKit          3D

 24 22  0  0  0  0  0  0  0  0999 V2000
   -3.2246   -0.0879    1.1173 C   0  0  0  0  0  0  0  0  0  0  0  0
   -2.2595    0.3706    0.3519 C   0  0  0  0  0  0  0  0  0  0  0  0
   -1.2851    0.7366   -0.3903 C   0  0  0  0  0  0  0  0  0  0  0  0
   -0.8775    2.0218   -1.0186 C   0  0  0  0  0  0  0  0  0  0  0  0
   -4.1324   -0.4970    0.6902 H   0  0  0  0  0  0  0  0  0  0  0  0
   -3.1488   -0.0509    2.1976 H   0  0  0  0  0  0  0  0  0  0  0  0
   -0.4284   -0.2061   -0.6371 H   0  0  0  0  0  0  0  0  0  0  0  0
   -1.5409    2.8365   -0.7252 H   0  0  0  0  0  0  0  0  0  0  0  0
   -0.8934    1.9368   -2.1074 H   0  0  0  0  0  0  0  0  0  0  0  0
    0.1452    2.2681   -0.7285 H   0  0  0  0  0  0  0  0  0  0  0  0
   -0.2621   -2.4525   -0.4788 C   0  0  0  0  0  0  0  0  0  0  0  0
    0.5150   -1.1990   -0.7575 C   0  0  0  0  0  3  0  0  0  0  0  0
    1.5430   -0.8220    0.2616 C   0  0  0  0  0  0  0  0  0  0  0  0
    2.1342    0.4014   -0.0964 O   0  0  0  0  0  0  0  0  0  0  0  0
    3.0856    0.8376    0.8348 C   0  0  0  0  0  0  0  0  0  0  0  0
   -1.0284   -2.6146   -1.2371 H   0  0  0  0  0  0  0  0  0  0  0  0
   -0.7610   -2.3948    0.4919 H   0  0  0  0  0  0  0  0  0  0  0  0
    0.3876   -3.3350   -0.4672 H   0  0  0  0  0  0  0  0  0  0  0  0
    0.8685   -1.0860   -1.7813 H   0  0  0  0  0  0  0  0  0  0  0  0
    1.0724   -0.7439    1.2546 H   0  0  0  0  0  0  0  0  0  0  0  0
    2.3173   -1.6066    0.3347 H   0  0  0  0  0  0  0  0  0  0  0  0
    2.6365    0.9943    1.8243 H   0  0  0  0  0  0  0  0  0  0  0  0
    3.9075    0.1166    0.9377 H   0  0  0  0  0  0  0  0  0  0  0  0
    3.4888    1.7832    0.4750 H   0  0  0  0  0  0  0  0  0  0  0  0
  1  2  2  0
  1  5  1  0
  1  6  1  0
  2  3  2  0
  3  4  1  0
  3  7  1  0
  4  8  1  0
  4  9  1  0
  4 10  1  0
 11 12  1  0
 11 16  1  0
 11 17  1  0
 11 18  1  0
 12 13  1  0
 12 19  1  0
 13 14  1  0
 13 20  1  0
 13 21  1  0
 14 15  1  0
 15 22  1  0
 15 23  1  0
 15 24  1  0
M  RAD  1  12   2
M  END
>  <reaction>  (3) 
rmg_rxn_13915

>  <type>  (3) 
ts

>  <mol_properties>  (3) 
{"1": {"label": "*0", "atom_type": "Cdd"}, "2": {"label": "*1", "atom_type": "Cd"}, "6": {"label": "*2", "atom_type": "H0"}, "11": {"label": "*3", "atom_type": "Cs"}, "12": {"label": "*4", "atom_type": "Cs"}}

$$$$
