
     RDKit          3D

 10  9  0  0  0  0  0  0  0  0999 V2000
   -1.2156   -1.2910   -0.6330 C   0  0  0  0  0  0  0  0  0  0  0  0
   -0.2787   -0.4579   -0.4316 C   0  0  0  0  0  0  0  0  0  0  0  0
    0.5863    0.5156   -0.2193 C   0  0  0  0  0  0  0  0  0  0  0  0
    0.8824    1.0975    1.1272 C   0  0  0  0  0  0  0  0  0  0  0  0
   -2.1796   -0.8271   -0.7642 H   0  0  0  0  0  0  0  0  0  0  0  0
   -1.2749   -2.3666   -0.6704 H   0  0  0  0  0  0  0  0  0  0  0  0
    1.1213    0.9172   -1.0748 H   0  0  0  0  0  0  0  0  0  0  0  0
    0.2919    0.6162    1.9047 H   0  0  0  0  0  0  0  0  0  0  0  0
    0.6535    2.1661    1.1338 H   0  0  0  0  0  0  0  0  0  0  0  0
    1.9423    0.9908    1.3712 H   0  0  0  0  0  0  0  0  0  0  0  0
  1  2  2  0
  1  5  1  0
  1  6  1  0
  2  3  2  0
  3  4  1  0
  3  7  1  0
  4  8  1  0
  4  9  1  0
  4 10  1  0
M  END
>  <reaction>  (1) 
rmg_rxn_14071

>  <type>  (1) 
r1h

>  <mol_properties>  (1) 
{"0": {"label": "donator", "atom_type": "Cd"}, "4": {"label": "d_hydrogen", "atom_type": "H0"}}

>  <electro_map>  (1) 
{"4": {"R": null, "A": null, "D": null}, "0": {"R": 1.0779057708315376, "A": null, "D": null}, "1": {"R": 1.269808507134304, "A": 113.37911451429389, "D": null}, "2": {"R": 1.319405238366581, "A": 143.14323970379587, "D": 181.04203413181625}, "3": {"R": 1.496504445888595, "A": 124.14930085265964, "D": 81.71823549469622}, "5": {"R": 4.459239309127113, "A": 40.49233989338507, "D": 10.58513888043617}, "6": {"R": 4.085162991992189, "A": 29.739198793452974, "D": 5.138972326446352}, "7": {"R": 3.1074034608191043, "A": 70.77207009118946, "D": 358.11135465216813}, "8": {"R": 1.768368774955343, "A": 56.118851766263504, "D": 209.23988664793882}, "9": {"R": 1.7602969096905536, "A": 60.377148488185746, "D": 292.56935489987467}}

$$$$

     RDKit          3D

 10  9  0  0  0  0  0  0  0  0999 V2000
    0.4298    0.3251   -1.5167 C   0  0  0  0  0  0  0  0  0  0  0  0
   -0.0580   -0.7398   -0.5765 C   0  0  0  0  0  0  0  0  0  0  0  0
   -0.3854   -0.3400    0.7974 C   0  0  0  0  0  0  0  0  0  0  0  0
   -0.0528    0.7078    1.3008 O   0  0  0  0  0  0  0  0  0  0  0  0
   -0.3653    1.0407   -1.7410 H   0  0  0  0  0  0  0  0  0  0  0  0
    0.7749   -0.1116   -2.4538 H   0  0  0  0  0  0  0  0  0  0  0  0
    1.2508    0.8825   -1.0644 H   0  0  0  0  0  0  0  0  0  0  0  0
   -0.7457   -1.4763   -0.9904 H   0  0  0  0  0  0  0  0  0  0  0  0
   -0.9345   -1.0967    1.3937 H   0  0  0  0  0  0  0  0  0  0  0  0
    0.8250   -1.3527   -0.3995 H   0  0  0  0  0  0  0  0  0  0  0  0
  1  2  1  0
  1  5  1  0
  1  6  1  0
  1  7  1  0
  2  3  1  0
  2  8  1  0
  2 10  1  0
  3  4  2  0
  3  9  1  0
M  END
>  <reaction>  (2) 
rmg_rxn_14071

>  <type>  (2) 
r2h

>  <mol_properties>  (2) 
{"1": {"label": "acceptor", "atom_type": "Cs"}, "9": {"label": "a_hydrogen", "atom_type": "H0"}}

>  <electro_map>  (2) 
{"9": {"R": null, "A": null, "D": null}, "1": {"R": 1.0893376860626958, "A": null, "D": null}, "2": {"R": 1.4678749562052087, "A": 100.48139006164477, "D": null}, "3": {"R": 1.2090947065404576, "A": 121.77423444835809, "D": 254.68055468059808}, "0": {"R": 2.8840694840165093, "A": 61.594179156242724, "D": 7.8181577868784435}, "4": {"R": 1.092929968646929, "A": 89.53683966513547, "D": 108.42054832780708}, "5": {"R": 1.7708397883877256, "A": 35.72743898894752, "D": 185.96629974091775}, "6": {"R": 1.773472991453779, "A": 59.51361579426783, "D": 322.8119401109541}, "7": {"R": 3.0911291561732006, "A": 54.389237856689725, "D": 71.32328391030659}, "8": {"R": 2.421475186725137, "A": 87.38138335033993, "D": 178.10665575896078}}

$$$$

     RDKit          3D

 19 17  0  0  0  0  0  0  0  0999 V2000
   -1.0200    0.8154   -1.7203 C   0  0  0  0  0  0  0  0  0  0  0  0
   -1.5078   -0.2495   -0.7801 C   0  0  0  0  0  0  0  0  0  0  0  0
   -1.8351    0.1503    0.5938 C   0  0  0  0  0  0  0  0  0  0  0  0
   -1.5025    1.1980    1.0972 O   0  0  0  0  0  0  0  0  0  0  0  0
   -1.8151    1.5309   -1.9446 H   0  0  0  0  0  0  0  0  0  0  0  0
   -0.6749    0.3786   -2.6575 H   0  0  0  0  0  0  0  0  0  0  0  0
   -0.1990    1.3727   -1.2680 H   0  0  0  0  0  0  0  0  0  0  0  0
   -2.1955   -0.9861   -1.1940 H   0  0  0  0  0  0  0  0  0  0  0  0
   -2.3843   -0.6065    1.1900 H   0  0  0  0  0  0  0  0  0  0  0  0
    0.7830   -1.5812   -0.3991 C   0  0  0  0  0  0  0  0  0  0  0  0
    1.7199   -0.7480   -0.1977 C   0  0  0  0  0  0  0  0  0  0  0  0
    2.5849    0.2254    0.0146 C   0  0  0  0  0  3  0  0  0  0  0  0
    2.8809    0.8073    1.3611 C   0  0  0  0  0  0  0  0  0  0  0  0
   -0.4309   -0.9970   -0.5643 H   0  0  0  0  0  0  0  0  0  0  0  0
    0.7237   -2.6568   -0.4365 H   0  0  0  0  0  0  0  0  0  0  0  0
    3.1199    0.6270   -0.8409 H   0  0  0  0  0  0  0  0  0  0  0  0
    2.2905    0.3260    2.1386 H   0  0  0  0  0  0  0  0  0  0  0  0
    2.6521    1.8759    1.3677 H   0  0  0  0  0  0  0  0  0  0  0  0
    3.9408    0.7006    1.6051 H   0  0  0  0  0  0  0  0  0  0  0  0
  1  2  1  0
  1  5  1  0
  1  6  1  0
  1  7  1  0
  2  3  1  0
  2  8  1  0
  2 14  1  0
  3  4  2  0
  3  9  1  0
 10 11  3  0
 10 15  1  0
 11 12  1  0
 12 13  1  0
 12 16  1  0
 13 17  1  0
 13 18  1  0
 13 19  1  0
M  RAD  1  12   2
M  END
>  <reaction>  (3) 
rmg_rxn_14071

>  <type>  (3) 
ts

>  <mol_properties>  (3) 
{"1": {"label": "*1", "atom_type": "Cs"}, "2": {"label": "*0", "atom_type": "CO"}, "9": {"label": "*3", "atom_type": "Ct"}, "10": {"label": "*4", "atom_type": "Ct"}, "13": {"label": "*2", "atom_type": "H0"}}

$$$$
