
     RDKit          3D

 10  9  0  0  0  0  0  0  0  0999 V2000
    0.8760   -0.9890   -1.3755 C   0  0  0  0  0  0  0  0  0  0  0  0
    0.4941   -0.2486   -0.3780 C   0  0  0  0  0  0  0  0  0  0  0  0
    0.0973    0.5194    0.6116 C   0  0  0  0  0  0  0  0  0  0  0  0
   -1.2911    0.7006    1.0298 C   0  0  0  0  0  0  0  0  0  0  0  0
    1.0111   -0.5721   -2.3684 H   0  0  0  0  0  0  0  0  0  0  0  0
    1.0769   -2.0489   -1.2540 H   0  0  0  0  0  0  0  0  0  0  0  0
    0.8695    1.0024    1.2046 H   0  0  0  0  0  0  0  0  0  0  0  0
   -1.4941   -0.1083    1.7263 H   0  0  0  0  0  0  0  0  0  0  0  0
   -2.0342    0.5251    0.2560 H   0  0  0  0  0  0  0  0  0  0  0  0
   -1.4806    1.6014    1.6061 H   0  0  0  0  0  0  0  0  0  0  0  0
  1  2  2  0
  1  5  1  0
  1  6  1  0
  2  3  2  0
  3  4  1  0
  3  7  1  0
  4  8  1  0
  4  9  1  0
  4 10  1  0
M  END
>  <reaction>  (1) 
rmg_rxn_14187

>  <type>  (1) 
r1h

>  <mol_properties>  (1) 
{"3": {"label": "donator", "atom_type": "Cs"}, "7": {"label": "d_hydrogen", "atom_type": "H0"}}

>  <electro_map>  (1) 
{"7": {"R": null, "A": null, "D": null}, "3": {"R": 1.0865611199937142, "A": null, "D": null}, "2": {"R": 1.4613296064192405, "A": 105.58318376397492, "D": null}, "1": {"R": 1.3140092981842715, "A": 117.82531790002558, "D": 247.42141532714388}, "0": {"R": 1.2996400518210744, "A": 178.72754366036042, "D": 73.21796406947848}, "4": {"R": 1.0853255489321705, "A": 121.331205359666, "D": 20.601704371260155}, "5": {"R": 1.851209453934653, "A": 31.493959449129267, "D": 179.81356576080765}, "6": {"R": 3.924092551132493, "A": 75.81830859284221, "D": 345.3588528528252}, "8": {"R": 3.091789472116848, "A": 74.7729491313493, "D": 80.19767450520081}, "9": {"R": 1.8131933530371345, "A": 52.637919717854544, "D": 168.90538232546754}}

$$$$

     RDKit          3D

  9  8  0  0  0  0  0  0  0  0999 V2000
   -0.8170   -0.6432   -0.7776 C   0  0  0  0  0  0  0  0  0  0  0  0
   -0.3137    0.3619    0.2193 C   0  0  0  0  0  0  0  0  0  0  0  0
    1.0115    0.2391    0.5861 O   0  0  0  0  0  0  0  0  0  0  0  0
   -0.7198   -1.6634   -0.3946 H   0  0  0  0  0  0  0  0  0  0  0  0
   -1.8675   -0.4575   -1.0062 H   0  0  0  0  0  0  0  0  0  0  0  0
   -0.2529   -0.5737   -1.7126 H   0  0  0  0  0  0  0  0  0  0  0  0
   -0.9183    0.4752    1.1172 H   0  0  0  0  0  0  0  0  0  0  0  0
    1.5487    0.2202   -0.2128 H   0  0  0  0  0  0  0  0  0  0  0  0
   -0.3668    1.3115   -0.3096 H   0  0  0  0  0  0  0  0  0  0  0  0
  1  2  1  0
  1  4  1  0
  1  5  1  0
  1  6  1  0
  2  3  1  0
  2  7  1  0
  2  9  1  0
  3  8  1  0
M  END
>  <reaction>  (2) 
rmg_rxn_14187

>  <type>  (2) 
r2h

>  <mol_properties>  (2) 
{"1": {"label": "acceptor", "atom_type": "Cs"}, "8": {"label": "a_hydrogen", "atom_type": "H0"}}

>  <electro_map>  (2) 
{"8": {"R": null, "A": null, "D": null}, "1": {"R": 1.0883202517737312, "A": null, "D": null}, "2": {"R": 1.380528519636691, "A": 104.68576923093998, "D": null}, "0": {"R": 2.445709488791433, "A": 54.38171776495286, "D": 38.2896646535142}, "7": {"R": 2.5808949704354864, "A": 21.873082578369022, "D": 130.85579541233764}, "3": {"R": 2.954155313302316, "A": 21.465915829164544, "D": 79.34562875663293}, "4": {"R": 1.773631551603691, "A": 94.85292515487394, "D": 353.7162449549276}, "5": {"R": 1.766226336947685, "A": 60.105739004226066, "D": 46.62663094861766}, "6": {"R": 3.090413307523108, "A": 54.17048031866465, "D": 289.74285231498646}}

$$$$

     RDKit          3D

 18 16  0  0  0  0  0  0  0  0999 V2000
   -1.2188   -1.6883    0.5311 C   0  0  0  0  0  0  0  0  0  0  0  0
   -0.7155   -0.6832    1.5280 C   0  0  0  0  0  3  0  0  0  0  0  0
    0.6098   -0.8060    1.8948 O   0  0  0  0  0  0  0  0  0  0  0  0
   -1.1215   -2.7085    0.9141 H   0  0  0  0  0  0  0  0  0  0  0  0
   -2.2693   -1.5026    0.3024 H   0  0  0  0  0  0  0  0  0  0  0  0
   -0.6546   -1.6188   -0.4040 H   0  0  0  0  0  0  0  0  0  0  0  0
   -1.3200   -0.5699    2.4259 H   0  0  0  0  0  0  0  0  0  0  0  0
    1.1469   -0.8249    1.0959 H   0  0  0  0  0  0  0  0  0  0  0  0
    1.6357   -0.1810   -2.4019 C   0  0  0  0  0  0  0  0  0  0  0  0
    1.2538    0.5594   -1.4044 C   0  0  0  0  0  0  0  0  0  0  0  0
    0.8570    1.3274   -0.4148 C   0  0  0  0  0  0  0  0  0  0  0  0
   -0.5314    1.5086    0.0034 C   0  0  0  0  0  0  0  0  0  0  0  0
    1.7708    0.2359   -3.3948 H   0  0  0  0  0  0  0  0  0  0  0  0
    1.8366   -1.2409   -2.2805 H   0  0  0  0  0  0  0  0  0  0  0  0
    1.6292    1.8104    0.1782 H   0  0  0  0  0  0  0  0  0  0  0  0
   -0.7821    0.5096    0.8636 H   0  0  0  0  0  0  0  0  0  0  0  0
   -1.2745    1.3331   -0.7704 H   0  0  0  0  0  0  0  0  0  0  0  0
   -0.7209    2.4095    0.5797 H   0  0  0  0  0  0  0  0  0  0  0  0
  1  2  1  0
  1  4  1  0
  1  5  1  0
  1  6  1  0
  2  3  1  0
  2  7  1  0
  3  8  1  0
  9 10  2  0
  9 13  1  0
  9 14  1  0
 10 11  2  0
 11 12  1  0
 11 15  1  0
 12 16  1  0
 12 17  1  0
 12 18  1  0
M  RAD  1   2   2
M  END
>  <reaction>  (3) 
rmg_rxn_14187

>  <type>  (3) 
ts

>  <mol_properties>  (3) 
{"1": {"label": "*3", "atom_type": "Cs"}, "2": {"label": "*4", "atom_type": "O2s"}, "10": {"label": "*0", "atom_type": "Cd"}, "11": {"label": "*1", "atom_type": "Cs"}, "15": {"label": "*2", "atom_type": "H0"}}

$$$$
