
     RDKit          3D

 10  9  0  0  0  0  0  0  0  0999 V2000
    0.5119    0.6398    1.6977 C   0  0  0  0  0  0  0  0  0  0  0  0
    0.1154   -0.0111    0.6762 C   0  0  0  0  0  0  0  0  0  0  0  0
   -0.4007   -0.5899   -0.3896 C   0  0  0  0  0  0  0  0  0  0  0  0
   -0.1946   -0.0999   -1.7921 C   0  0  0  0  0  0  0  0  0  0  0  0
   -0.1898    1.3664    2.0781 H   0  0  0  0  0  0  0  0  0  0  0  0
    1.4280    0.5853    2.2657 H   0  0  0  0  0  0  0  0  0  0  0  0
   -0.9964   -1.4867   -0.2502 H   0  0  0  0  0  0  0  0  0  0  0  0
    0.3163   -0.8513   -2.4001 H   0  0  0  0  0  0  0  0  0  0  0  0
    0.4012    0.8124   -1.8061 H   0  0  0  0  0  0  0  0  0  0  0  0
   -1.1528    0.1071   -2.2766 H   0  0  0  0  0  0  0  0  0  0  0  0
  1  2  2  0
  1  5  1  0
  1  6  1  0
  2  3  2  0
  3  4  1  0
  3  7  1  0
  4  8  1  0
  4  9  1  0
  4 10  1  0
M  END
>  <reaction>  (1) 
rmg_rxn_14049

>  <type>  (1) 
r1h

>  <mol_properties>  (1) 
{"0": {"label": "donator", "atom_type": "Cd"}, "4": {"label": "d_hydrogen", "atom_type": "H0"}}

>  <electro_map>  (1) 
{"4": {"R": null, "A": null, "D": null}, "0": {"R": 1.0793200517637964, "A": null, "D": null}, "1": {"R": 1.2744623752366564, "A": 115.09194770523439, "D": null}, "2": {"R": 1.318106800892462, "A": 144.48733986943392, "D": 182.1853971436704}, "3": {"R": 1.4998694204078353, "A": 123.97556194660366, "D": 79.87009307025302}, "5": {"R": 4.423623753557383, "A": 40.82085158874777, "D": 11.880613967516913}, "6": {"R": 4.0621173384983, "A": 29.994288928260094, "D": 6.14285031943858}, "7": {"R": 2.597941126296577, "A": 94.94512475252994, "D": 22.16933698264143}, "8": {"R": 1.7685583273620054, "A": 88.6469860516898, "D": 315.83301165041223}, "9": {"R": 1.7701797475980094, "A": 59.591796662857426, "D": 292.722160086535}}

$$$$

     RDKit          3D

 15 14  0  0  0  0  0  0  0  0999 V2000
    1.5633   -0.5693    0.7628 H   0  0  0  0  0  0  0  0  0  0  0  0
    0.2061   -0.4760    2.3506 C   0  0  0  0  0  0  0  0  0  0  0  0
    0.7065    0.0561    1.0428 C   0  0  0  0  0  0  0  0  0  0  0  0
   -0.2119   -0.1175    0.0388 O   0  0  0  0  0  0  0  0  0  0  0  0
    0.1290    0.5073   -1.1856 C   0  0  0  0  0  0  0  0  0  0  0  0
   -0.8490    0.0543   -2.2418 C   0  0  0  0  0  0  0  0  0  0  0  0
   -0.0681   -1.5269    2.2476 H   0  0  0  0  0  0  0  0  0  0  0  0
    0.9829   -0.3927    3.1116 H   0  0  0  0  0  0  0  0  0  0  0  0
   -0.6736    0.0769    2.6910 H   0  0  0  0  0  0  0  0  0  0  0  0
    1.1169    1.0728    1.0803 H   0  0  0  0  0  0  0  0  0  0  0  0
    1.1520    0.2323   -1.4638 H   0  0  0  0  0  0  0  0  0  0  0  0
    0.0955    1.5974   -1.0570 H   0  0  0  0  0  0  0  0  0  0  0  0
   -1.8690    0.3250   -1.9669 H   0  0  0  0  0  0  0  0  0  0  0  0
   -0.7970   -1.0288   -2.3581 H   0  0  0  0  0  0  0  0  0  0  0  0
   -0.6115    0.5209   -3.1991 H   0  0  0  0  0  0  0  0  0  0  0  0
  1  3  1  0
  2  3  1  0
  2  7  1  0
  2  8  1  0
  2  9  1  0
  3  4  1  0
  3 10  1  0
  4  5  1  0
  5  6  1  0
  5 11  1  0
  5 12  1  0
  6 13  1  0
  6 14  1  0
  6 15  1  0
M  END
>  <reaction>  (2) 
rmg_rxn_14049

>  <type>  (2) 
r2h

>  <mol_properties>  (2) 
{"0": {"label": "a_hydrogen", "atom_type": "H0"}, "2": {"label": "acceptor", "atom_type": "Cs"}}

>  <electro_map>  (2) 
{"0": {"R": null, "A": null, "D": null}, "2": {"R": 1.0971151083693398, "A": null, "D": null}, "3": {"R": 1.3716887571395389, "A": 105.3012692505562, "D": null}, "4": {"R": 1.4162938337958233, "A": 101.65713058979702, "D": 117.80061592286019}, "1": {"R": 3.671258233398515, "A": 18.93796374822848, "D": 351.45027850209215}, "5": {"R": 4.741835554408106, "A": 14.644497275287536, "D": 0.2903890452157158}, "6": {"R": 4.823372387485181, "A": 13.061708527616819, "D": 142.39501296990483}, "7": {"R": 1.771327372431222, "A": 109.88559031081057, "D": 341.4355523344273}, "8": {"R": 1.7723917966025635, "A": 59.958278488088744, "D": 69.22269923362306}, "9": {"R": 2.6061481007659983, "A": 66.7865542406148, "D": 258.8730661731246}, "10": {"R": 2.679524230431766, "A": 118.41900214209649, "D": 113.13295444460819}, "11": {"R": 1.7734717143115117, "A": 62.15793052943414, "D": 87.44775813169355}, "12": {"R": 2.511173835841214, "A": 89.59361011938606, "D": 236.39377461713397}, "13": {"R": 1.7705978311756156, "A": 89.64659217449139, "D": 0.23050101827341024}, "14": {"R": 1.7729324092083882, "A": 59.988664681343735, "D": 294.2726849354961}}

$$$$

     RDKit          3D

 24 22  0  0  0  0  0  0  0  0999 V2000
    1.7513   -0.6898    0.8681 C   0  0  0  0  0  0  0  0  0  0  0  0
    1.3549   -1.3407   -0.1534 C   0  0  0  0  0  0  0  0  0  0  0  0
    0.8388   -1.9195   -1.2192 C   0  0  0  0  0  3  0  0  0  0  0  0
    1.0449   -1.4295   -2.6217 C   0  0  0  0  0  0  0  0  0  0  0  0
    0.8613    0.2319    1.3506 H   0  0  0  0  0  0  0  0  0  0  0  0
    2.6675   -0.7443    1.4362 H   0  0  0  0  0  0  0  0  0  0  0  0
    0.2430   -2.8163   -1.0797 H   0  0  0  0  0  0  0  0  0  0  0  0
    1.5558   -2.1809   -3.2297 H   0  0  0  0  0  0  0  0  0  0  0  0
    1.6406   -0.5172   -2.6357 H   0  0  0  0  0  0  0  0  0  0  0  0
    0.0867   -1.2225   -3.1061 H   0  0  0  0  0  0  0  0  0  0  0  0
   -0.6742    0.4553    2.9968 C   0  0  0  0  0  0  0  0  0  0  0  0
   -0.1737    0.9874    1.6889 C   0  0  0  0  0  0  0  0  0  0  0  0
   -1.0921    0.8138    0.6849 O   0  0  0  0  0  0  0  0  0  0  0  0
   -0.7512    1.4386   -0.5395 C   0  0  0  0  0  0  0  0  0  0  0  0
   -1.7292    0.9857   -1.5957 C   0  0  0  0  0  0  0  0  0  0  0  0
   -0.9484   -0.5956    2.8937 H   0  0  0  0  0  0  0  0  0  0  0  0
    0.1026    0.5386    3.7577 H   0  0  0  0  0  0  0  0  0  0  0  0
   -1.5538    1.0082    3.3371 H   0  0  0  0  0  0  0  0  0  0  0  0
    0.2367    2.0041    1.7264 H   0  0  0  0  0  0  0  0  0  0  0  0
    0.2718    1.1636   -0.8176 H   0  0  0  0  0  0  0  0  0  0  0  0
   -0.7848    2.5287   -0.4108 H   0  0  0  0  0  0  0  0  0  0  0  0
   -2.7492    1.2563   -1.3207 H   0  0  0  0  0  0  0  0  0  0  0  0
   -1.6772   -0.0975   -1.7119 H   0  0  0  0  0  0  0  0  0  0  0  0
   -1.4917    1.4522   -2.5529 H   0  0  0  0  0  0  0  0  0  0  0  0
  1  2  3  0
  1  6  1  0
  2  3  1  0
  3  4  1  0
  3  7  1  0
  4  8  1  0
  4  9  1  0
  4 10  1  0
  5 12  1  0
 11 12  1  0
 11 16  1  0
 11 17  1  0
 11 18  1  0
 12 13  1  0
 12 19  1  0
 13 14  1  0
 14 15  1  0
 14 20  1  0
 14 21  1  0
 15 22  1  0
 15 23  1  0
 15 24  1  0
M  RAD  1   3   2
M  END
>  <reaction>  (3) 
rmg_rxn_14049

>  <type>  (3) 
ts

>  <mol_properties>  (3) 
{"0": {"label": "*3", "atom_type": "Ct"}, "1": {"label": "*4", "atom_type": "Ct"}, "4": {"label": "*2", "atom_type": "H0"}, "11": {"label": "*1", "atom_type": "Cs"}, "12": {"label": "*0", "atom_type": "O2s"}}

$$$$
