
     RDKit          3D

  6  5  0  0  0  0  0  0  0  0999 V2000
    0.1368   -1.1154    0.5882 C   0  0  0  0  0  0  0  0  0  0  0  0
    0.0138    0.1453   -0.0763 C   0  0  0  0  0  0  0  0  0  0  0  0
   -0.1379    1.1536   -0.6083 N   0  0  0  0  0  0  0  0  0  0  0  0
   -0.8701   -1.4814    0.7693 H   0  0  0  0  0  0  0  0  0  0  0  0
    0.5968   -1.8861   -0.0243 H   0  0  0  0  0  0  0  0  0  0  0  0
    0.5787   -1.0433    1.5782 H   0  0  0  0  0  0  0  0  0  0  0  0
  1  2  1  0
  1  4  1  0
  1  5  1  0
  1  6  1  0
  2  3  3  0
M  END
>  <reaction>  (1) 
rmg_rxn_15412

>  <type>  (1) 
r1h

>  <mol_properties>  (1) 
{"0": {"label": "donator", "atom_type": "Cs"}, "3": {"label": "d_hydrogen", "atom_type": "H0"}}

>  <electro_map>  (1) 
{"3": {"R": null, "A": null, "D": null}, "0": {"R": 1.0865750533863459, "A": null, "D": null}, "1": {"R": 1.4303950659016076, "A": 107.1319159340426, "D": null}, "2": {"R": 1.1500969141053796, "A": 146.67973867568492, "D": 180.0001383218707}, "4": {"R": 3.1812660741493617, "A": 17.623907919144774, "D": 250.04976609093518}, "5": {"R": 1.8107868517009644, "A": 73.46496967742503, "D": 339.151640692434}}

$$$$

     RDKit          3D

  6  5  0  0  0  0  0  0  0  0999 V2000
   -0.7750   -0.6970    0.3578 O   0  0  0  0  0  0  0  0  0  0  0  0
    0.4660   -0.1360    0.0768 N   0  0  0  0  0  0  0  0  0  0  0  0
    0.4280    0.9597   -0.4999 C   0  0  0  0  0  0  0  0  0  0  0  0
   -0.5465   -1.5216    0.7941 H   0  0  0  0  0  0  0  0  0  0  0  0
   -0.4194    1.5606   -0.8255 H   0  0  0  0  0  0  0  0  0  0  0  0
    1.4158    1.3694   -0.7042 H   0  0  0  0  0  0  0  0  0  0  0  0
  1  2  1  0
  1  4  1  0
  2  3  2  3
  3  5  1  0
  3  6  1  0
M  END
>  <reaction>  (2) 
rmg_rxn_15412

>  <type>  (2) 
r2h

>  <mol_properties>  (2) 
{"2": {"label": "acceptor", "atom_type": "Cd"}, "5": {"label": "a_hydrogen", "atom_type": "H0"}}

>  <electro_map>  (2) 
{"5": {"R": null, "A": null, "D": null}, "2": {"R": 1.0886445917023824, "A": null, "D": null}, "1": {"R": 1.238789018080001, "A": 113.10343295749888, "D": null}, "0": {"R": 1.3905758795474539, "A": 146.06627662791783, "D": 359.99918889975817}, "3": {"R": 0.9604747247145501, "A": 103.05384480121165, "D": 180.00007718982596}, "4": {"R": 3.4840858236838015, "A": 15.85238781308255, "D": 0.0004856238682478429}}

$$$$

     RDKit          3D

 11  9  0  0  0  0  0  0  0  0999 V2000
   -2.0670   -1.8607    1.4111 O   0  0  0  0  0  0  0  0  0  0  0  0
   -0.8261   -1.2998    1.1301 N   0  0  0  0  0  0  0  0  0  0  0  0
   -0.8640   -0.2040    0.5534 C   0  0  0  0  0  3  0  0  0  0  0  0
   -1.8386   -2.6853    1.8474 H   0  0  0  0  0  0  0  0  0  0  0  0
   -1.7114    0.3968    0.2278 H   0  0  0  0  0  0  0  0  0  0  0  0
    1.5912    0.7533    0.0777 C   0  0  0  0  0  0  0  0  0  0  0  0
    1.4682    2.0140   -0.5868 C   0  0  0  0  0  0  0  0  0  0  0  0
    1.3165    3.0223   -1.1188 N   0  0  0  0  0  0  0  0  0  0  0  0
    0.4021    0.3211    0.2915 H   0  0  0  0  0  0  0  0  0  0  0  0
    2.0512   -0.0174   -0.5349 H   0  0  0  0  0  0  0  0  0  0  0  0
    2.0331    0.8255    1.0677 H   0  0  0  0  0  0  0  0  0  0  0  0
  1  2  1  0
  1  4  1  0
  2  3  2  3
  3  5  1  0
  6  7  1  0
  6  9  1  0
  6 10  1  0
  6 11  1  0
  7  8  3  0
M  RAD  1   3   2
M  END
>  <reaction>  (3) 
rmg_rxn_15412

>  <type>  (3) 
ts

>  <mol_properties>  (3) 
{"1": {"label": "*4", "atom_type": "N3d"}, "2": {"label": "*3", "atom_type": "Cd"}, "5": {"label": "*1", "atom_type": "Cs"}, "6": {"label": "*0", "atom_type": "Ct"}, "8": {"label": "*2", "atom_type": "H0"}}

$$$$
