
     RDKit          3D

 10  9  0  0  0  0  0  0  0  0999 V2000
   -0.7214    1.7533    0.1672 C   0  0  0  0  0  0  0  0  0  0  0  0
   -0.3551    0.5487   -0.1533 C   0  0  0  0  0  0  0  0  0  0  0  0
    0.0346   -0.6635   -0.4641 C   0  0  0  0  0  0  0  0  0  0  0  0
    0.8880   -1.5053    0.3758 C   0  0  0  0  0  0  0  0  0  0  0  0
   -0.0988    2.6116   -0.0671 H   0  0  0  0  0  0  0  0  0  0  0  0
   -1.6603    1.9448    0.6761 H   0  0  0  0  0  0  0  0  0  0  0  0
   -0.2499   -1.0441   -1.4415 H   0  0  0  0  0  0  0  0  0  0  0  0
    1.9316   -1.3012    0.1494 H   0  0  0  0  0  0  0  0  0  0  0  0
    0.8032   -2.5721    0.1845 H   0  0  0  0  0  0  0  0  0  0  0  0
    0.8636   -1.2725    1.4376 H   0  0  0  0  0  0  0  0  0  0  0  0
  1  2  2  0
  1  5  1  0
  1  6  1  0
  2  3  2  0
  3  4  1  0
  3  7  1  0
  4  8  1  0
  4  9  1  0
  4 10  1  0
M  END
>  <reaction>  (1) 
rmg_rxn_14143

>  <type>  (1) 
r1h

>  <mol_properties>  (1) 
{"3": {"label": "donator", "atom_type": "Cs"}, "7": {"label": "d_hydrogen", "atom_type": "H0"}}

>  <electro_map>  (1) 
{"7": {"R": null, "A": null, "D": null}, "3": {"R": 1.0872035707764587, "A": null, "D": null}, "2": {"R": 1.4637170145828382, "A": 109.39812011198246, "D": null}, "1": {"R": 1.3106534320474208, "A": 118.79902792254107, "D": 110.34145179126303}, "0": {"R": 1.2992833307838014, "A": 178.9500764628288, "D": 29.857098802334193}, "4": {"R": 1.0858794272284125, "A": 121.19681205151153, "D": 56.95764054810083}, "5": {"R": 1.8534510513811047, "A": 31.361601309052986, "D": 179.8319355284506}, "6": {"R": 3.925273744792536, "A": 75.81074865225862, "D": 345.6175143505857}, "8": {"R": 2.4673068500276982, "A": 105.62829318642996, "D": 101.96101901414397}, "9": {"R": 1.8063923763141303, "A": 91.48419308911083, "D": 342.2887006454405}}

$$$$

     RDKit          3D

 14 14  0  0  0  0  0  0  0  0999 V2000
   -1.1241   -1.6166    0.1360 H   0  0  0  0  0  0  0  0  0  0  0  0
   -0.0621   -1.4085    0.0234 C   0  0  0  0  0  0  0  0  0  0  0  0
    0.1112   -0.6773   -1.2872 C   0  0  0  0  0  0  0  0  0  0  0  0
   -0.3683    0.7610   -1.1472 C   0  0  0  0  0  0  0  0  0  0  0  0
    0.1919    1.3464    0.0167 O   0  0  0  0  0  0  0  0  0  0  0  0
   -0.1604    0.6246    1.1494 C   0  0  0  0  0  0  0  0  0  0  0  0
    0.3431   -0.6905    1.1333 O   0  0  0  0  0  0  0  0  0  0  0  0
    0.3834   -2.4003    0.0643 H   0  0  0  0  0  0  0  0  0  0  0  0
    1.1700   -0.6786   -1.5670 H   0  0  0  0  0  0  0  0  0  0  0  0
   -0.4441   -1.1899   -2.0761 H   0  0  0  0  0  0  0  0  0  0  0  0
   -0.0501    1.3730   -1.9896 H   0  0  0  0  0  0  0  0  0  0  0  0
   -1.4631    0.7927   -1.0828 H   0  0  0  0  0  0  0  0  0  0  0  0
    0.2868    1.1178    2.0090 H   0  0  0  0  0  0  0  0  0  0  0  0
   -1.2571    0.5860    1.2472 H   0  0  0  0  0  0  0  0  0  0  0  0
  1  2  1  0
  2  3  1  0
  2  7  1  0
  2  8  1  0
  3  4  1  0
  3  9  1  0
  3 10  1  0
  4  5  1  0
  4 11  1  0
  4 12  1  0
  5  6  1  0
  6  7  1  0
  6 13  1  0
  6 14  1  0
M  END
>  <reaction>  (2) 
rmg_rxn_14143

>  <type>  (2) 
r2h

>  <mol_properties>  (2) 
{"0": {"label": "a_hydrogen", "atom_type": "H0"}, "1": {"label": "acceptor", "atom_type": "Cs"}}

>  <electro_map>  (2) 
{"0": {"R": null, "A": null, "D": null}, "1": {"R": 1.0880406822389364, "A": null, "D": null}, "6": {"R": 1.3826688271578909, "A": 107.59382654721405, "D": null}, "5": {"R": 1.4082516729316819, "A": 100.12146487167475, "D": 117.94121803745382}, "4": {"R": 1.3886086064558356, "A": 112.66439629151091, "D": 302.81381625822064}, "3": {"R": 1.4181371331399877, "A": 110.7775323915446, "D": 63.10423013854261}, "2": {"R": 1.5226279430782172, "A": 109.93508024754173, "D": 301.3316688503667}, "7": {"R": 2.2066925599153127, "A": 136.06281605546735, "D": 43.30922738941418}, "8": {"R": 2.498854756299096, "A": 25.973472003109883, "D": 239.18284482841403}, "9": {"R": 1.767997228348402, "A": 72.62457659766905, "D": 322.5106034547383}, "10": {"R": 2.594469637025789, "A": 64.2829453341632, "D": 132.154873660267}, "11": {"R": 1.776372287736631, "A": 64.75599759124638, "D": 233.16001997735856}, "12": {"R": 3.5675125996528227, "A": 91.2879498569615, "D": 102.97254886078781}, "13": {"R": 1.8018858329137688, "A": 35.55176310255559, "D": 183.1590903326911}}

$$$$

     RDKit          3D

 23 22  0  0  0  0  0  0  0  0999 V2000
   -2.9380    1.4825    0.2150 C   0  0  0  0  0  0  0  0  0  0  0  0
   -2.5717    0.2778   -0.1055 C   0  0  0  0  0  0  0  0  0  0  0  0
   -2.1820   -0.9343   -0.4163 C   0  0  0  0  0  0  0  0  0  0  0  0
   -1.3286   -1.7762    0.4237 C   0  0  0  0  0  0  0  0  0  0  0  0
   -2.3154    2.3408   -0.0193 H   0  0  0  0  0  0  0  0  0  0  0  0
   -3.8769    1.6740    0.7239 H   0  0  0  0  0  0  0  0  0  0  0  0
   -2.4664   -1.3150   -1.3937 H   0  0  0  0  0  0  0  0  0  0  0  0
   -0.0423   -1.5246    0.1445 H   0  0  0  0  0  0  0  0  0  0  0  0
   -1.4134   -2.8429    0.2323 H   0  0  0  0  0  0  0  0  0  0  0  0
   -1.3530   -1.5433    1.4855 H   0  0  0  0  0  0  0  0  0  0  0  0
    1.3033   -1.2609    0.0018 C   0  0  0  0  0  3  0  0  0  0  0  0
    1.4766   -0.5297   -1.3088 C   0  0  0  0  0  0  0  0  0  0  0  0
    0.9971    0.9086   -1.1688 C   0  0  0  0  0  0  0  0  0  0  0  0
    1.5573    1.4940   -0.0049 O   0  0  0  0  0  0  0  0  0  0  0  0
    1.2050    0.7722    1.1279 C   0  0  0  0  0  0  0  0  0  0  0  0
    1.7085   -0.5429    1.1117 O   0  0  0  0  0  0  0  0  0  0  0  0
    1.7488   -2.2527    0.0427 H   0  0  0  0  0  0  0  0  0  0  0  0
    2.5354   -0.5310   -1.5886 H   0  0  0  0  0  0  0  0  0  0  0  0
    0.9213   -1.0423   -2.0977 H   0  0  0  0  0  0  0  0  0  0  0  0
    1.3153    1.5207   -2.0112 H   0  0  0  0  0  0  0  0  0  0  0  0
   -0.0977    0.9404   -1.1044 H   0  0  0  0  0  0  0  0  0  0  0  0
    1.6521    1.2654    1.9874 H   0  0  0  0  0  0  0  0  0  0  0  0
    0.1083    0.7336    1.2256 H   0  0  0  0  0  0  0  0  0  0  0  0
  1  2  2  0
  1  5  1  0
  1  6  1  0
  2  3  2  0
  3  4  1  0
  3  7  1  0
  4  8  1  0
  4  9  1  0
  4 10  1  0
 11 12  1  0
 11 16  1  0
 11 17  1  0
 12 13  1  0
 12 18  1  0
 12 19  1  0
 13 14  1  0
 13 20  1  0
 13 21  1  0
 14 15  1  0
 15 16  1  0
 15 22  1  0
 15 23  1  0
M  RAD  1  11   2
M  END
>  <reaction>  (3) 
rmg_rxn_14143

>  <type>  (3) 
ts

>  <mol_properties>  (3) 
{"2": {"label": "*0", "atom_type": "Cd"}, "3": {"label": "*1", "atom_type": "Cs"}, "7": {"label": "*2", "atom_type": "H0"}, "10": {"label": "*3", "atom_type": "Cs"}, "15": {"label": "*4", "atom_type": "O2s"}}

$$$$
