
     RDKit          3D

 10  9  0  0  0  0  0  0  0  0999 V2000
   -0.0761   -1.6237   -1.1155 C   0  0  0  0  0  0  0  0  0  0  0  0
    0.0691   -0.5775   -0.3251 C   0  0  0  0  0  0  0  0  0  0  0  0
    0.3296    0.3711    0.4855 C   0  0  0  0  0  0  0  0  0  0  0  0
   -0.3024    1.6619    0.8605 C   0  0  0  0  0  0  0  0  0  0  0  0
    0.3342   -1.6270   -2.1184 H   0  0  0  0  0  0  0  0  0  0  0  0
   -0.6545   -2.4853   -0.8035 H   0  0  0  0  0  0  0  0  0  0  0  0
    1.2498    0.1594    1.0300 H   0  0  0  0  0  0  0  0  0  0  0  0
   -0.5441    1.6770    1.9255 H   0  0  0  0  0  0  0  0  0  0  0  0
   -1.2206    1.8352    0.2972 H   0  0  0  0  0  0  0  0  0  0  0  0
    0.3808    2.4924    0.6706 H   0  0  0  0  0  0  0  0  0  0  0  0
  1  2  2  0
  1  5  1  0
  1  6  1  0
  2  3  2  0
  3  4  1  0
  3  7  1  0
  4  8  1  0
  4  9  1  0
  4 10  1  0
M  END
>  <reaction>  (1) 
rmg_rxn_13889

>  <type>  (1) 
r1h

>  <mol_properties>  (1) 
{"2": {"label": "donator", "atom_type": "Cd"}, "6": {"label": "d_hydrogen", "atom_type": "H0"}}

>  <electro_map>  (1) 
{"6": {"R": null, "A": null, "D": null}, "2": {"R": 1.0899999909882152, "A": null, "D": null}, "1": {"R": 1.2745687222815012, "A": 110.22808140711004, "D": null}, "0": {"R": 1.319254163216822, "A": 141.78597064642003, "D": 179.91755072644236}, "3": {"R": 3.8406935534399964, "A": 11.422936321570976, "D": 180.44090439368043}, "4": {"R": 4.482846734018267, "A": 12.074463473835115, "D": 98.08067715512843}, "5": {"R": 1.8555423119669445, "A": 78.04334727285384, "D": 8.610639209579151}, "7": {"R": 4.978446663655374, "A": 89.42116310853164, "D": 356.67543013960864}, "8": {"R": 1.7703172567493877, "A": 64.02570799130127, "D": 56.66884110608259}, "9": {"R": 1.7707647946127587, "A": 59.57899610769115, "D": 253.19208221400248}}

$$$$

     RDKit          3D

 12 11  0  0  0  0  0  0  0  0999 V2000
    0.3910   -0.8651    1.4087 C   0  0  0  0  0  0  0  0  0  0  0  0
   -0.6783   -0.0355    0.7009 C   0  0  0  0  0  0  0  0  0  0  0  0
   -0.1299    0.8043   -0.4237 C   0  0  0  0  0  0  0  0  0  0  0  0
    0.4108    0.1199   -1.4899 O   0  0  0  0  0  0  0  0  0  0  0  0
    1.1473   -0.2213    1.8623 H   0  0  0  0  0  0  0  0  0  0  0  0
   -0.0489   -1.4768    2.1979 H   0  0  0  0  0  0  0  0  0  0  0  0
    0.8962   -1.5275    0.7048 H   0  0  0  0  0  0  0  0  0  0  0  0
   -1.4578   -0.6917    0.2982 H   0  0  0  0  0  0  0  0  0  0  0  0
   -1.1741    0.6296    1.4132 H   0  0  0  0  0  0  0  0  0  0  0  0
    0.5620    1.5900   -0.1207 H   0  0  0  0  0  0  0  0  0  0  0  0
   -0.2582   -0.4738   -1.8490 H   0  0  0  0  0  0  0  0  0  0  0  0
   -1.0098    1.2979   -0.8362 H   0  0  0  0  0  0  0  0  0  0  0  0
  1  2  1  0
  1  5  1  0
  1  6  1  0
  1  7  1  0
  2  3  1  0
  2  8  1  0
  2  9  1  0
  3  4  1  0
  3 10  1  0
  3 12  1  0
  4 11  1  0
M  END
>  <reaction>  (2) 
rmg_rxn_13889

>  <type>  (2) 
r2h

>  <mol_properties>  (2) 
{"2": {"label": "acceptor", "atom_type": "Cs"}, "11": {"label": "a_hydrogen", "atom_type": "H0"}}

>  <electro_map>  (2) 
{"11": {"R": null, "A": null, "D": null}, "2": {"R": 1.089901009973026, "A": null, "D": null}, "3": {"R": 1.3775934989338285, "A": 104.41641453459717, "D": null}, "1": {"R": 2.451530375613599, "A": 54.366942566037196, "D": 38.29784408087027}, "0": {"R": 1.5272633563100988, "A": 97.90459218856155, "D": 236.5417274089842}, "10": {"R": 3.3447023265545286, "A": 49.39881835148941, "D": 339.0014305752829}, "4": {"R": 3.9765791677189366, "A": 14.02489830513808, "D": 94.38002157025166}, "5": {"R": 1.7662826258621827, "A": 83.84853124024939, "D": 357.59440265783434}, "6": {"R": 1.767806604276755, "A": 59.85664353713183, "D": 40.381129339043774}, "7": {"R": 2.530791535478777, "A": 68.22030223378039, "D": 257.1698985871633}, "8": {"R": 1.7520347074397837, "A": 89.78335772545412, "D": 59.31073559375678}, "9": {"R": 2.5078060352087626, "A": 90.66917112657327, "D": 65.21946944153511}}

$$$$

     RDKit          3D

 21 19  0  0  0  0  0  0  0  0999 V2000
    1.7539   -1.3574    2.4052 C   0  0  0  0  0  0  0  0  0  0  0  0
    0.6846   -0.5277    1.6975 C   0  0  0  0  0  0  0  0  0  0  0  0
    1.2330    0.3121    0.5729 C   0  0  0  0  0  3  0  0  0  0  0  0
    1.7737   -0.3724   -0.4934 O   0  0  0  0  0  0  0  0  0  0  0  0
    2.5102   -0.7136    2.8589 H   0  0  0  0  0  0  0  0  0  0  0  0
    1.3140   -1.9691    3.1945 H   0  0  0  0  0  0  0  0  0  0  0  0
    2.2591   -2.0197    1.7014 H   0  0  0  0  0  0  0  0  0  0  0  0
   -0.0949   -1.1840    1.2948 H   0  0  0  0  0  0  0  0  0  0  0  0
    0.1888    0.1374    2.4097 H   0  0  0  0  0  0  0  0  0  0  0  0
    1.9249    1.0978    0.8759 H   0  0  0  0  0  0  0  0  0  0  0  0
    1.1047   -0.9660   -0.8525 H   0  0  0  0  0  0  0  0  0  0  0  0
   -1.3953   -0.8109   -2.2094 C   0  0  0  0  0  0  0  0  0  0  0  0
   -1.2501    0.2353   -1.4190 C   0  0  0  0  0  0  0  0  0  0  0  0
   -0.9896    1.1838   -0.6085 C   0  0  0  0  0  0  0  0  0  0  0  0
   -1.6216    2.4747   -0.2335 C   0  0  0  0  0  0  0  0  0  0  0  0
   -0.9850   -0.8143   -3.2123 H   0  0  0  0  0  0  0  0  0  0  0  0
   -1.9737   -1.6726   -1.8974 H   0  0  0  0  0  0  0  0  0  0  0  0
    0.1435    0.9233    0.0621 H   0  0  0  0  0  0  0  0  0  0  0  0
   -1.8633    2.4898    0.8316 H   0  0  0  0  0  0  0  0  0  0  0  0
   -2.5398    2.6480   -0.7967 H   0  0  0  0  0  0  0  0  0  0  0  0
   -0.9384    3.3052   -0.4233 H   0  0  0  0  0  0  0  0  0  0  0  0
  1  2  1  0
  1  5  1  0
  1  6  1  0
  1  7  1  0
  2  3  1  0
  2  8  1  0
  2  9  1  0
  3  4  1  0
  3 10  1  0
  4 11  1  0
 12 13  2  0
 12 16  1  0
 12 17  1  0
 13 14  2  0
 14 15  1  0
 14 18  1  0
 15 19  1  0
 15 20  1  0
 15 21  1  0
M  RAD  1   3   2
M  END
>  <reaction>  (3) 
rmg_rxn_13889

>  <type>  (3) 
ts

>  <mol_properties>  (3) 
{"1": {"label": "*4", "atom_type": "Cs"}, "2": {"label": "*3", "atom_type": "Cs"}, "12": {"label": "*0", "atom_type": "Cdd"}, "13": {"label": "*1", "atom_type": "Cd"}, "17": {"label": "*2", "atom_type": "H0"}}

$$$$
