
     RDKit          3D

 10  9  0  0  0  0  0  0  0  0999 V2000
    0.2981    1.7256    0.7138 C   0  0  0  0  0  0  0  0  0  0  0  0
    0.2984    0.4932    0.3667 C   0  0  0  0  0  0  0  0  0  0  0  0
    0.1852   -0.7831    0.0760 C   0  0  0  0  0  0  0  0  0  0  0  0
   -0.6521   -1.3264   -1.0432 C   0  0  0  0  0  0  0  0  0  0  0  0
   -0.4659    2.0278    1.4152 H   0  0  0  0  0  0  0  0  0  0  0  0
    0.9491    2.5299    0.4032 H   0  0  0  0  0  0  0  0  0  0  0  0
    0.7393   -1.4950    0.6807 H   0  0  0  0  0  0  0  0  0  0  0  0
   -0.0466   -1.9293   -1.7239 H   0  0  0  0  0  0  0  0  0  0  0  0
   -1.1176   -0.5259   -1.6173 H   0  0  0  0  0  0  0  0  0  0  0  0
   -1.4426   -1.9718   -0.6521 H   0  0  0  0  0  0  0  0  0  0  0  0
  1  2  2  0
  1  5  1  0
  1  6  1  0
  2  3  2  0
  3  4  1  0
  3  7  1  0
  4  8  1  0
  4  9  1  0
  4 10  1  0
M  END
>  <reaction>  (1) 
rmg_rxn_14036

>  <type>  (1) 
r1h

>  <mol_properties>  (1) 
{"0": {"label": "donator", "atom_type": "Cd"}, "4": {"label": "d_hydrogen", "atom_type": "H0"}}

>  <electro_map>  (1) 
{"4": {"R": null, "A": null, "D": null}, "0": {"R": 1.0802899061626057, "A": null, "D": null}, "1": {"R": 1.2804117950005816, "A": 116.44799534676393, "D": null}, "2": {"R": 1.3138330139007497, "A": 145.53109294806654, "D": 181.3358175451034}, "3": {"R": 1.4996607714761343, "A": 124.41316822491632, "D": 82.05832891343518}, "5": {"R": 4.4189549162533766, "A": 40.291143594996505, "D": 12.778994014032023}, "6": {"R": 4.039883616820065, "A": 30.02926591568006, "D": 6.252446937919206}, "7": {"R": 2.566772341926635, "A": 96.89968492022307, "D": 21.814778216038807}, "8": {"R": 1.7685439699599965, "A": 89.69500176550102, "D": 319.4497866104095}, "9": {"R": 1.7685439699599965, "A": 59.70040740861551, "D": 291.7085538463051}}

$$$$

     RDKit          3D

  9  8  0  0  0  0  0  0  0  0999 V2000
    0.7174    0.7913    0.7141 C   0  0  0  0  0  0  0  0  0  0  0  0
   -0.1450   -0.3894    0.3808 C   0  0  0  0  0  0  0  0  0  0  0  0
   -0.6058   -0.3690   -0.9535 O   0  0  0  0  0  0  0  0  0  0  0  0
    1.1401    0.7929    1.7166 H   0  0  0  0  0  0  0  0  0  0  0  0
    0.3180    1.7542    0.4035 H   0  0  0  0  0  0  0  0  0  0  0  0
    0.4017   -1.3188    0.5914 H   0  0  0  0  0  0  0  0  0  0  0  0
   -1.0417   -0.3964    1.0087 H   0  0  0  0  0  0  0  0  0  0  0  0
    0.1651   -0.3618   -1.5267 H   0  0  0  0  0  0  0  0  0  0  0  0
    1.5836    0.6418    0.0731 H   0  0  0  0  0  0  0  0  0  0  0  0
  1  2  1  0
  1  4  1  0
  1  5  1  0
  1  9  1  0
  2  3  1  0
  2  6  1  0
  2  7  1  0
  3  8  1  0
M  END
>  <reaction>  (2) 
rmg_rxn_14036

>  <type>  (2) 
r2h

>  <mol_properties>  (2) 
{"0": {"label": "acceptor", "atom_type": "Cs"}, "8": {"label": "a_hydrogen", "atom_type": "H0"}}

>  <electro_map>  (2) 
{"8": {"R": null, "A": null, "D": null}, "0": {"R": 1.0878527102206996, "A": null, "D": null}, "1": {"R": 1.4996056038207173, "A": 102.63441649594665, "D": null}, "2": {"R": 1.4117288037075642, "A": 97.29458080061767, "D": 122.53030666966795}, "7": {"R": 0.9606971750341157, "A": 107.58801381657926, "D": 59.10016792879305}, "3": {"R": 3.5781192696204798, "A": 71.34906550211785, "D": 339.2003413778111}, "4": {"R": 1.823207207187369, "A": 52.73458502804565, "D": 279.2946433528613}, "5": {"R": 3.0798293299267496, "A": 54.388720471946165, "D": 18.972027572155742}, "6": {"R": 1.7630799441850056, "A": 58.00660787371095, "D": 103.93674534140072}}

$$$$

     RDKit          3D

 18 16  0  0  0  0  0  0  0  0999 V2000
   -0.4864    1.7240    1.4098 C   0  0  0  0  0  3  0  0  0  0  0  0
   -1.3488    0.5434    1.0765 C   0  0  0  0  0  0  0  0  0  0  0  0
   -1.8096    0.5638   -0.2578 O   0  0  0  0  0  0  0  0  0  0  0  0
   -0.0637    1.7257    2.4122 H   0  0  0  0  0  0  0  0  0  0  0  0
   -0.8858    2.6870    1.0992 H   0  0  0  0  0  0  0  0  0  0  0  0
   -0.8021   -0.3860    1.2871 H   0  0  0  0  0  0  0  0  0  0  0  0
   -2.2455    0.5364    1.7044 H   0  0  0  0  0  0  0  0  0  0  0  0
   -1.0387    0.5710   -0.8311 H   0  0  0  0  0  0  0  0  0  0  0  0
    1.5344    1.1696   -0.2499 C   0  0  0  0  0  0  0  0  0  0  0  0
    1.5347   -0.0629   -0.5970 C   0  0  0  0  0  0  0  0  0  0  0  0
    1.4214   -1.3392   -0.8877 C   0  0  0  0  0  0  0  0  0  0  0  0
    0.5841   -1.8825   -2.0069 C   0  0  0  0  0  0  0  0  0  0  0  0
    0.6114    1.5346    0.5973 H   0  0  0  0  0  0  0  0  0  0  0  0
    2.1854    1.9738   -0.5605 H   0  0  0  0  0  0  0  0  0  0  0  0
    1.9756   -2.0511   -0.2830 H   0  0  0  0  0  0  0  0  0  0  0  0
    1.1896   -2.4854   -2.6876 H   0  0  0  0  0  0  0  0  0  0  0  0
    0.1186   -1.0820   -2.5810 H   0  0  0  0  0  0  0  0  0  0  0  0
   -0.2064   -2.5278   -1.6158 H   0  0  0  0  0  0  0  0  0  0  0  0
  1  2  1  0
  1  4  1  0
  1  5  1  0
  2  3  1  0
  2  6  1  0
  2  7  1  0
  3  8  1  0
  9 10  2  0
  9 13  1  0
  9 14  1  0
 10 11  2  0
 11 12  1  0
 11 15  1  0
 12 16  1  0
 12 17  1  0
 12 18  1  0
M  RAD  1   1   2
M  END
>  <reaction>  (3) 
rmg_rxn_14036

>  <type>  (3) 
ts

>  <mol_properties>  (3) 
{"0": {"label": "*3", "atom_type": "Cs"}, "1": {"label": "*4", "atom_type": "Cs"}, "8": {"label": "*1", "atom_type": "Cd"}, "9": {"label": "*0", "atom_type": "Cdd"}, "12": {"label": "*2", "atom_type": "H0"}}

$$$$
