
     RDKit          3D

 13 12  0  0  0  0  0  0  0  0999 V2000
    1.4808    0.3457    0.7915 N   0  0  0  0  0  2  0  0  0  0  0  0
    0.5232    1.1042    0.3374 N   0  0  0  0  0  0  0  0  0  0  0  0
   -0.6738    0.7389   -0.0442 C   0  0  0  0  0  3  0  0  0  0  0  0
   -1.0744   -0.6906    0.0075 C   0  0  0  0  0  0  0  0  0  0  0  0
   -0.4266   -1.5422   -1.0909 C   0  0  0  0  0  0  0  0  0  0  0  0
    2.2421    1.0174    1.0169 H   0  0  0  0  0  0  0  0  0  0  0  0
    0.7220    2.1024    0.2654 H   0  0  0  0  0  0  0  0  0  0  0  0
   -1.3134    1.5280   -0.4088 H   0  0  0  0  0  0  0  0  0  0  0  0
   -2.1614   -0.7546   -0.0620 H   0  0  0  0  0  0  0  0  0  0  0  0
   -0.7813   -1.0955    0.9829 H   0  0  0  0  0  0  0  0  0  0  0  0
    0.6601   -1.4850   -1.0225 H   0  0  0  0  0  0  0  0  0  0  0  0
   -0.7308   -1.1987   -2.0811 H   0  0  0  0  0  0  0  0  0  0  0  0
   -0.7198   -2.5881   -0.9875 H   0  0  0  0  0  0  0  0  0  0  0  0
  1  2  1  0
  1  6  1  0
  2  3  1  0
  2  7  1  0
  3  4  1  0
  3  8  1  0
  4  5  1  0
  4  9  1  0
  4 10  1  0
  5 11  1  0
  5 12  1  0
  5 13  1  0
M  CHG  2   1  -1   3   1
M  END
>  <reaction>  (1) 
rmg_rxn_2537

>  <type>  (1) 
r1h

>  <mol_properties>  (1) 
{"0": {"label": "donator", "atom_type": "N1sc"}, "5": {"label": "d_hydrogen", "atom_type": "H0"}}

>  <electro_map>  (1) 
{"5": {"R": null, "A": null, "D": null}, "0": {"R": 1.0399999190293794, "A": null, "D": null}, "1": {"R": 1.3032478109985677, "A": 103.73868708854387, "D": null}, "2": {"R": 1.308413729455159, "A": 160.71437642100798, "D": 5.709144729528666}, "3": {"R": 1.4855158387080942, "A": 120.3461984555917, "D": 359.7607535594235}, "4": {"R": 1.533456574891391, "A": 113.29927667361844, "D": 286.2953576396232}, "6": {"R": 4.054848375601867, "A": 51.74968732336542, "D": 18.295008785523056}, "7": {"R": 2.219715284527828, "A": 53.564607302176036, "D": 308.5547921961842}, "8": {"R": 2.459598140457649, "A": 120.89497988617565, "D": 32.89696094661397}, "9": {"R": 1.7642980670000097, "A": 89.60459033133624, "D": 10.533547924578409}, "10": {"R": 2.500173371979154, "A": 90.34519892701375, "D": 279.62856999470426}, "11": {"R": 1.7711908166618016, "A": 90.08623763247361, "D": 358.2069206701615}, "12": {"R": 1.768144480981232, "A": 59.89747028933534, "D": 295.270982428118}}

$$$$

     RDKit          3D

 11 10  0  0  0  0  0  0  0  0999 V2000
   -0.3204   -0.1138    1.2404 C   0  0  0  0  0  0  0  0  0  0  0  0
    0.5673   -0.0869    0.0258 C   0  0  0  0  0  0  0  0  0  0  0  0
   -0.1887    0.2221   -1.2612 C   0  0  0  0  0  0  0  0  0  0  0  0
    0.1637   -0.4073    2.1695 H   0  0  0  0  0  0  0  0  0  0  0  0
   -0.9356    0.7786    1.3763 H   0  0  0  0  0  0  0  0  0  0  0  0
    1.3588    0.6592    0.1711 H   0  0  0  0  0  0  0  0  0  0  0  0
    1.0748   -1.0503   -0.0716 H   0  0  0  0  0  0  0  0  0  0  0  0
   -0.7179    1.1765   -1.1844 H   0  0  0  0  0  0  0  0  0  0  0  0
    0.4874    0.2883   -2.1146 H   0  0  0  0  0  0  0  0  0  0  0  0
   -0.9203   -0.5598   -1.4747 H   0  0  0  0  0  0  0  0  0  0  0  0
   -1.0261   -0.9333    1.1034 H   0  0  0  0  0  0  0  0  0  0  0  0
  1  2  1  0
  1  4  1  0
  1  5  1  0
  1 11  1  0
  2  3  1  0
  2  6  1  0
  2  7  1  0
  3  8  1  0
  3  9  1  0
  3 10  1  0
M  END
>  <reaction>  (2) 
rmg_rxn_2537

>  <type>  (2) 
r2h

>  <mol_properties>  (2) 
{"0": {"label": "acceptor", "atom_type": "Cs"}, "10": {"label": "a_hydrogen", "atom_type": "H0"}}

>  <electro_map>  (2) 
{"10": {"R": null, "A": null, "D": null}, "0": {"R": 1.0901483909845255, "A": null, "D": null}, "1": {"R": 1.5047463980899562, "A": 107.09043863770344, "D": null}, "2": {"R": 1.5242651622907166, "A": 97.96147620814399, "D": 236.32810183989398}, "3": {"R": 3.505671946156312, "A": 24.145183953683688, "D": 356.8532321335133}, "4": {"R": 1.8010845466776417, "A": 52.37087836045527, "D": 140.76924540605438}, "5": {"R": 2.594372134683819, "A": 68.56297006721958, "D": 321.9581319164378}, "6": {"R": 1.7498026464079721, "A": 88.0459793595835, "D": 57.809180731775285}, "7": {"R": 3.067700233297659, "A": 55.66627060877202, "D": 60.93456081207662}, "8": {"R": 1.762595286397584, "A": 54.97332769335949, "D": 101.15279562130239}, "9": {"R": 1.7635849501436813, "A": 60.33159853392037, "D": 65.21190138108499}}

$$$$

     RDKit          3D

 23 21  0  0  0  0  0  0  0  0999 V2000
    1.9475    1.3017    1.2395 C   0  0  0  0  0  3  0  0  0  0  0  0
    2.8353    1.3286    0.0248 C   0  0  0  0  0  0  0  0  0  0  0  0
    2.0792    1.6376   -1.2621 C   0  0  0  0  0  0  0  0  0  0  0  0
    2.4317    1.0082    2.1685 H   0  0  0  0  0  0  0  0  0  0  0  0
    1.3324    2.1941    1.3753 H   0  0  0  0  0  0  0  0  0  0  0  0
    3.6267    2.0747    0.1701 H   0  0  0  0  0  0  0  0  0  0  0  0
    3.3428    0.3652   -0.0726 H   0  0  0  0  0  0  0  0  0  0  0  0
    1.5500    2.5920   -1.1854 H   0  0  0  0  0  0  0  0  0  0  0  0
    2.7554    1.7038   -2.1155 H   0  0  0  0  0  0  0  0  0  0  0  0
    1.3477    0.8557   -1.4756 H   0  0  0  0  0  0  0  0  0  0  0  0
    0.1713   -0.5120    0.8036 N   0  0  0  0  0  2  0  0  0  0  0  0
   -0.7863    0.2465    0.3495 N   0  0  0  0  0  0  0  0  0  0  0  0
   -1.9834   -0.1188   -0.0321 C   0  0  0  0  0  3  0  0  0  0  0  0
   -2.3840   -1.5484    0.0196 C   0  0  0  0  0  0  0  0  0  0  0  0
   -1.7361   -2.4000   -1.0788 C   0  0  0  0  0  0  0  0  0  0  0  0
    1.0642    0.2758    1.0680 H   0  0  0  0  0  0  0  0  0  0  0  0
   -0.5876    1.2446    0.2775 H   0  0  0  0  0  0  0  0  0  0  0  0
   -2.6230    0.6702   -0.3967 H   0  0  0  0  0  0  0  0  0  0  0  0
   -3.4710   -1.6124   -0.0499 H   0  0  0  0  0  0  0  0  0  0  0  0
   -2.0909   -1.9532    0.9950 H   0  0  0  0  0  0  0  0  0  0  0  0
   -0.6495   -2.3427   -1.0104 H   0  0  0  0  0  0  0  0  0  0  0  0
   -2.0404   -2.0565   -2.0690 H   0  0  0  0  0  0  0  0  0  0  0  0
   -2.0293   -3.4458   -0.9754 H   0  0  0  0  0  0  0  0  0  0  0  0
  1  2  1  0
  1  4  1  0
  1  5  1  0
  2  3  1  0
  2  6  1  0
  2  7  1  0
  3  8  1  0
  3  9  1  0
  3 10  1  0
 11 12  1  0
 11 16  1  0
 12 13  1  0
 12 17  1  0
 13 14  1  0
 13 18  1  0
 14 15  1  0
 14 19  1  0
 14 20  1  0
 15 21  1  0
 15 22  1  0
 15 23  1  0
M  CHG  2  11  -1  13   1
M  RAD  1   1   2
M  END
>  <reaction>  (3) 
rmg_rxn_2537

>  <type>  (3) 
ts

>  <mol_properties>  (3) 
{"0": {"label": "*3", "atom_type": "Cs"}, "1": {"label": "*4", "atom_type": "Cs"}, "10": {"label": "*1", "atom_type": "N1sc"}, "11": {"label": "*0", "atom_type": "N3s"}, "15": {"label": "*2", "atom_type": "H0"}}

$$$$
