
     RDKit          3D

 21 21  0  0  0  0  0  0  0  0999 V2000
    3.7603   -0.6436   -0.0466 C   0  0  0  0  0  0  0  0  0  0  0  0
    2.5444    0.2243   -0.0040 C   0  0  0  0  0  0  0  0  0  0  0  0
    1.2944   -0.2146   -0.0157 C   0  0  0  0  0  0  0  0  0  0  0  0
    0.0655    0.6648    0.0274 C   0  0  0  0  0  0  0  0  0  0  0  0
   -0.7384    0.3820    1.2672 C   0  0  0  0  0  0  0  0  0  0  0  0
   -1.9582   -0.1496    1.2456 C   0  0  0  0  0  0  0  0  0  0  0  0
   -2.6330   -0.5261   -0.0082 C   0  0  0  0  0  0  0  0  0  0  0  0
   -1.9712   -0.0462   -1.2332 C   0  0  0  0  0  0  0  0  0  0  0  0
   -0.7515    0.4860   -1.2232 C   0  0  0  0  0  0  0  0  0  0  0  0
    4.3855   -0.4830    0.8355 H   0  0  0  0  0  0  0  0  0  0  0  0
    3.4945   -1.7004   -0.0893 H   0  0  0  0  0  0  0  0  0  0  0  0
    4.3763   -0.4098   -0.9187 H   0  0  0  0  0  0  0  0  0  0  0  0
    2.7187    1.2974    0.0399 H   0  0  0  0  0  0  0  0  0  0  0  0
    1.0988   -1.2842   -0.0593 H   0  0  0  0  0  0  0  0  0  0  0  0
    0.4171    1.7032    0.0689 H   0  0  0  0  0  0  0  0  0  0  0  0
   -0.2661    0.6245    2.2127 H   0  0  0  0  0  0  0  0  0  0  0  0
   -2.4815   -0.3387    2.1759 H   0  0  0  0  0  0  0  0  0  0  0  0
   -2.6214   -1.6158   -0.0537 H   0  0  0  0  0  0  0  0  0  0  0  0
   -3.7136   -0.3784    0.0037 H   0  0  0  0  0  0  0  0  0  0  0  0
   -2.5043   -0.1574   -2.1704 H   0  0  0  0  0  0  0  0  0  0  0  0
   -0.2890    0.8066   -2.1501 H   0  0  0  0  0  0  0  0  0  0  0  0
  1  2  1  0
  1 10  1  0
  1 11  1  0
  1 12  1  0
  2  3  2  3
  2 13  1  0
  3  4  1  0
  3 14  1  0
  4  5  1  0
  4  9  1  0
  4 15  1  0
  5  6  2  0
  5 16  1  0
  6  7  1  0
  6 17  1  0
  7  8  1  0
  7 18  1  0
  7 19  1  0
  8  9  2  0
  8 20  1  0
  9 21  1  0
M  END
>  <reaction>  (1) 
rmg_rxn_14502

>  <type>  (1) 
r1h

>  <mol_properties>  (1) 
{"6": {"label": "donator", "atom_type": "Cs"}, "17": {"label": "d_hydrogen", "atom_type": "H0"}}

>  <electro_map>  (1) 
{"17": {"R": null, "A": null, "D": null}, "6": {"R": 1.090707744093771, "A": null, "D": null}, "5": {"R": 1.4727691688047755, "A": 106.61819542404758, "D": null}, "4": {"R": 1.3307658698686675, "A": 125.96713017477413, "D": 265.920656994499}, "3": {"R": 1.5044372413859752, "A": 123.47095235917075, "D": 0.6422567584283313}, "2": {"R": 1.5117537620097672, "A": 110.40043395062074, "D": 245.84274938276477}, "1": {"R": 1.3248335049945392, "A": 125.03074106868664, "D": 242.10879759389053}, "7": {"R": 4.687668860890798, "A": 21.519611016031956, "D": 313.82793717817384}, "8": {"R": 1.3307658698686675, "A": 24.779834545942027, "D": 173.13877740790977}, "0": {"R": 4.7975984208038716, "A": 140.32122267887434, "D": 15.514092883459117}, "9": {"R": 1.0929877213419241, "A": 134.52364522662614, "D": 263.77543368807187}, "10": {"R": 1.7694994184649175, "A": 35.82261996852229, "D": 107.98382819581265}, "11": {"R": 1.7694994184649175, "A": 59.4870865425576, "D": 37.911703640480084}, "12": {"R": 2.5653856358632243, "A": 89.32697184176416, "D": 292.7953952743807}, "13": {"R": 3.049447250307778, "A": 76.56492591749848, "D": 333.4065440638246}, "14": {"R": 3.0669524854344576, "A": 44.93085347213097, "D": 200.59928981561475}, "15": {"R": 2.495242933475237, "A": 71.07484602504361, "D": 247.66612378972331}, "16": {"R": 2.416035608133426, "A": 114.22484442344566, "D": 273.46214358624}, "18": {"R": 2.4976178263839115, "A": 118.16000231065263, "D": 6.439737332933029}, "19": {"R": 2.4976178263839115, "A": 121.11692943933828, "D": 19.85902354386483}, "20": {"R": 2.416035608133426, "A": 118.16000231065263, "D": 340.1409475935781}}

$$$$

     RDKit          3D

  3  2  0  0  0  0  0  0  0  0999 V2000
   -0.0510   -0.0895   -0.0035 N   0  0  0  0  0  2  0  0  0  0  0  0
    0.9819   -0.0213   -0.0061 H   0  0  0  0  0  0  0  0  0  0  0  0
   -0.2189    0.9309    0.0400 H   0  0  0  0  0  0  0  0  0  0  0  0
  1  2  1  0
  1  3  1  0
M  RAD  1   1   2
M  END
>  <reaction>  (2) 
rmg_rxn_14502

>  <type>  (2) 
r2h

>  <mol_properties>  (2) 
{"0": {"label": "acceptor", "atom_type": "N3s"}, "2": {"label": "a_hydrogen", "atom_type": "H0"}}

>  <electro_map>  (2) 
{"2": {"R": null, "A": null, "D": null}, "0": {"R": 1.035081104933906, "A": null, "D": null}, "1": {"R": 1.035081104933906, "A": 95.56757975164903, "D": null}}

$$$$

     RDKit          3D

 23 22  0  0  0  0  0  0  0  0999 V2000
   -2.2090   -2.8663   -0.0810 N   0  0  0  0  0  1  0  0  0  0  0  0
   -1.1762   -2.7981   -0.0836 H   0  0  0  0  0  0  0  0  0  0  0  0
    3.9480   -0.3694   -0.0091 C   0  0  0  0  0  0  0  0  0  0  0  0
    2.7321    0.4985    0.0335 C   0  0  0  0  0  0  0  0  0  0  0  0
    1.4821    0.0596    0.0217 C   0  0  0  0  0  0  0  0  0  0  0  0
    0.2532    0.9390    0.0649 C   0  0  0  0  0  0  0  0  0  0  0  0
   -0.5507    0.6563    1.3046 C   0  0  0  0  0  0  0  0  0  0  0  0
   -1.7705    0.1246    1.2831 C   0  0  0  0  0  0  0  0  0  0  0  0
   -2.4453   -0.2518    0.0293 C   0  0  0  0  0  0  0  0  0  0  0  0
   -1.7835    0.2280   -1.1957 C   0  0  0  0  0  0  0  0  0  0  0  0
   -0.5638    0.7602   -1.1857 C   0  0  0  0  0  0  0  0  0  0  0  0
    4.5732   -0.2088    0.8730 H   0  0  0  0  0  0  0  0  0  0  0  0
    3.6822   -1.4262   -0.0518 H   0  0  0  0  0  0  0  0  0  0  0  0
    4.5640   -0.1356   -0.8812 H   0  0  0  0  0  0  0  0  0  0  0  0
    2.9064    1.5717    0.0773 H   0  0  0  0  0  0  0  0  0  0  0  0
    1.2865   -1.0100   -0.0219 H   0  0  0  0  0  0  0  0  0  0  0  0
    0.6048    1.9775    0.1063 H   0  0  0  0  0  0  0  0  0  0  0  0
   -0.0784    0.8988    2.2501 H   0  0  0  0  0  0  0  0  0  0  0  0
   -2.2938   -0.0645    2.2133 H   0  0  0  0  0  0  0  0  0  0  0  0
   -2.4319   -1.5118   -0.0233 H   0  0  0  0  0  0  0  0  0  0  0  0
   -3.5259   -0.1041    0.0411 H   0  0  0  0  0  0  0  0  0  0  0  0
   -2.3166    0.1169   -2.1330 H   0  0  0  0  0  0  0  0  0  0  0  0
   -0.1013    1.0808   -2.1126 H   0  0  0  0  0  0  0  0  0  0  0  0
  1  2  1  0
  3  4  1  0
  3 12  1  0
  3 13  1  0
  3 14  1  0
  4  5  2  3
  4 15  1  0
  5  6  1  0
  5 16  1  0
  6  7  1  0
  6 11  1  0
  6 17  1  0
  7  8  2  0
  7 18  1  0
  8  9  1  0
  8 19  1  0
  9 10  1  0
  9 20  1  0
  9 21  1  0
 10 11  2  0
 10 22  1  0
 11 23  1  0
M  RAD  1   1   3
M  END
>  <reaction>  (3) 
rmg_rxn_14502

>  <type>  (3) 
ts

>  <mol_properties>  (3) 
{"0": {"label": "*3", "atom_type": "N3s"}, "1": {"label": "*4", "atom_type": "H0"}, "7": {"label": "*0", "atom_type": "Cd"}, "8": {"label": "*1", "atom_type": "Cs"}, "19": {"label": "*2", "atom_type": "H0"}}

$$$$
