
     RDKit          3D

 10  9  0  0  0  0  0  0  0  0999 V2000
    0.6096    1.1194    1.3899 C   0  0  0  0  0  0  0  0  0  0  0  0
    0.2142    0.1780    0.6266 C   0  0  0  0  0  0  0  0  0  0  0  0
   -0.3224   -0.7257   -0.1683 C   0  0  0  0  0  0  0  0  0  0  0  0
   -0.4294   -0.5765   -1.6569 C   0  0  0  0  0  0  0  0  0  0  0  0
   -0.1650    1.7927    1.7241 H   0  0  0  0  0  0  0  0  0  0  0  0
    1.5897    1.3602    1.7727 H   0  0  0  0  0  0  0  0  0  0  0  0
   -0.6921   -1.6451    0.2751 H   0  0  0  0  0  0  0  0  0  0  0  0
    0.1394   -1.3552   -2.1721 H   0  0  0  0  0  0  0  0  0  0  0  0
   -0.0524    0.3926   -1.9830 H   0  0  0  0  0  0  0  0  0  0  0  0
   -1.4687   -0.6693   -1.9837 H   0  0  0  0  0  0  0  0  0  0  0  0
  1  2  2  0
  1  5  1  0
  1  6  1  0
  2  3  2  0
  3  4  1  0
  3  7  1  0
  4  8  1  0
  4  9  1  0
  4 10  1  0
M  END
>  <reaction>  (1) 
rmg_rxn_13986

>  <type>  (1) 
r1h

>  <mol_properties>  (1) 
{"0": {"label": "donator", "atom_type": "Cd"}, "4": {"label": "d_hydrogen", "atom_type": "H0"}}

>  <electro_map>  (1) 
{"4": {"R": null, "A": null, "D": null}, "0": {"R": 1.0793889142118673, "A": null, "D": null}, "1": {"R": 1.2748424993734002, "A": 115.04987758325005, "D": null}, "2": {"R": 1.3177136457534675, "A": 144.2932775163481, "D": 181.8263627111837}, "3": {"R": 1.4999324465480983, "A": 124.02130504448252, "D": 81.7156300960548}, "5": {"R": 4.426073002436854, "A": 40.705980051539555, "D": 11.802013630990281}, "6": {"R": 4.0597729259562225, "A": 29.98383098789372, "D": 6.180531896638438}, "7": {"R": 2.6008304333469496, "A": 94.86842381307835, "D": 22.22362162658035}, "8": {"R": 1.7683873131603025, "A": 88.56053879518221, "D": 315.2986205568152}, "9": {"R": 1.7701270845555963, "A": 59.594623811566485, "D": 292.8667656445852}}

$$$$

     RDKit          3D

 18 17  0  0  0  0  0  0  0  0999 V2000
    1.6628    0.0481    0.1906 H   0  0  0  0  0  0  0  0  0  0  0  0
    0.2786   -1.0909    2.2623 C   0  0  0  0  0  0  0  0  0  0  0  0
    0.5027    0.3761    1.9140 C   0  0  0  0  0  0  0  0  0  0  0  0
    0.7582    0.6118    0.4511 C   0  0  0  0  0  0  0  0  0  0  0  0
   -0.2363    0.0952   -0.3398 O   0  0  0  0  0  0  0  0  0  0  0  0
   -0.1403    0.4380   -1.7101 C   0  0  0  0  0  0  0  0  0  0  0  0
   -1.1559   -0.3723   -2.4776 C   0  0  0  0  0  0  0  0  0  0  0  0
    1.1421   -1.6933    1.9750 H   0  0  0  0  0  0  0  0  0  0  0  0
    0.1159   -1.2119    3.3341 H   0  0  0  0  0  0  0  0  0  0  0  0
   -0.5917   -1.4843    1.7375 H   0  0  0  0  0  0  0  0  0  0  0  0
   -0.3672    0.9681    2.2217 H   0  0  0  0  0  0  0  0  0  0  0  0
    1.3597    0.7699    2.4670 H   0  0  0  0  0  0  0  0  0  0  0  0
    1.0156    1.6473    0.1956 H   0  0  0  0  0  0  0  0  0  0  0  0
   -0.3225    1.5145   -1.8270 H   0  0  0  0  0  0  0  0  0  0  0  0
    0.8726    0.2269   -2.0688 H   0  0  0  0  0  0  0  0  0  0  0  0
   -2.1658   -0.1650   -2.1222 H   0  0  0  0  0  0  0  0  0  0  0  0
   -1.1047   -0.1303   -3.5402 H   0  0  0  0  0  0  0  0  0  0  0  0
   -0.9555   -1.4369   -2.3517 H   0  0  0  0  0  0  0  0  0  0  0  0
  1  4  1  0
  2  3  1  0
  2  8  1  0
  2  9  1  0
  2 10  1  0
  3  4  1  0
  3 11  1  0
  3 12  1  0
  4  5  1  0
  4 13  1  0
  5  6  1  0
  6  7  1  0
  6 14  1  0
  6 15  1  0
  7 16  1  0
  7 17  1  0
  7 18  1  0
M  END
>  <reaction>  (2) 
rmg_rxn_13986

>  <type>  (2) 
r2h

>  <mol_properties>  (2) 
{"0": {"label": "a_hydrogen", "atom_type": "H0"}, "3": {"label": "acceptor", "atom_type": "Cs"}}

>  <electro_map>  (2) 
{"0": {"R": null, "A": null, "D": null}, "3": {"R": 1.0972488027215397, "A": null, "D": null}, "4": {"R": 1.371610147548572, "A": 105.50691622076188, "D": null}, "5": {"R": 1.4157584121187432, "A": 101.5796787964708, "D": 118.21384164369542}, "2": {"R": 3.681204772567764, "A": 19.077495933911415, "D": 350.8599788582706}, "1": {"R": 1.5244038964567332, "A": 102.43826954252599, "D": 35.28679054083156}, "6": {"R": 5.004068436030385, "A": 71.79358989410967, "D": 351.60387010263287}, "7": {"R": 5.18185853410064, "A": 12.138161650666744, "D": 110.81489378034271}, "8": {"R": 1.769680193765234, "A": 109.47484777527532, "D": 8.242270632809024}, "9": {"R": 1.7674973274437367, "A": 59.76991977660163, "D": 23.57473455981}, "10": {"R": 2.5097941237438386, "A": 68.85832443960648, "D": 257.05506872749294}, "11": {"R": 1.7554821249872932, "A": 90.26519971028502, "D": 57.50859796467235}, "12": {"R": 2.459242561002561, "A": 72.12127736007638, "D": 99.63809563067097}, "13": {"R": 2.428801838178781, "A": 145.7649927224937, "D": 318.0765994350158}, "14": {"R": 1.7733763293501095, "A": 77.40322499612958, "D": 274.9269805739701}, "15": {"R": 3.0641095349924488, "A": 55.035122431981385, "D": 123.62477335136342}, "16": {"R": 1.7714717237868263, "A": 54.36929889726028, "D": 104.32216524756473}, "17": {"R": 1.7726432601432593, "A": 59.95080594011952, "D": 65.4241840251476}}

$$$$

     RDKit          3D

 27 25  0  0  0  0  0  0  0  0999 V2000
    1.9928   -0.1416    0.3671 C   0  0  0  0  0  0  0  0  0  0  0  0
    1.5973   -1.0830   -0.3962 C   0  0  0  0  0  0  0  0  0  0  0  0
    1.0607   -1.9867   -1.1910 C   0  0  0  0  0  3  0  0  0  0  0  0
    0.9538   -1.8375   -2.6797 C   0  0  0  0  0  0  0  0  0  0  0  0
    1.0100    0.7126    0.7912 H   0  0  0  0  0  0  0  0  0  0  0  0
    2.9728    0.0992    0.7500 H   0  0  0  0  0  0  0  0  0  0  0  0
    0.6910   -2.9062   -0.7476 H   0  0  0  0  0  0  0  0  0  0  0  0
    1.5226   -2.6162   -3.1948 H   0  0  0  0  0  0  0  0  0  0  0  0
    1.3308   -0.8685   -3.0057 H   0  0  0  0  0  0  0  0  0  0  0  0
   -0.0855   -1.9303   -3.0064 H   0  0  0  0  0  0  0  0  0  0  0  0
   -0.5656   -0.3072    2.9180 C   0  0  0  0  0  0  0  0  0  0  0  0
   -0.3414    1.1599    2.5697 C   0  0  0  0  0  0  0  0  0  0  0  0
   -0.0860    1.3955    1.1068 C   0  0  0  0  0  0  0  0  0  0  0  0
   -1.0804    0.8789    0.3159 O   0  0  0  0  0  0  0  0  0  0  0  0
   -0.9844    1.2217   -1.0543 C   0  0  0  0  0  0  0  0  0  0  0  0
   -2.0000    0.4114   -1.8219 C   0  0  0  0  0  0  0  0  0  0  0  0
    0.2979   -0.9096    2.6307 H   0  0  0  0  0  0  0  0  0  0  0  0
   -0.7282   -0.4282    3.9898 H   0  0  0  0  0  0  0  0  0  0  0  0
   -1.4359   -0.7006    2.3932 H   0  0  0  0  0  0  0  0  0  0  0  0
   -1.2114    1.7518    2.8774 H   0  0  0  0  0  0  0  0  0  0  0  0
    0.5156    1.5536    3.1227 H   0  0  0  0  0  0  0  0  0  0  0  0
    0.1715    2.4310    0.8513 H   0  0  0  0  0  0  0  0  0  0  0  0
   -1.1667    2.2982   -1.1713 H   0  0  0  0  0  0  0  0  0  0  0  0
    0.0285    1.0106   -1.4130 H   0  0  0  0  0  0  0  0  0  0  0  0
   -3.0100    0.6188   -1.4665 H   0  0  0  0  0  0  0  0  0  0  0  0
   -1.9488    0.6534   -2.8845 H   0  0  0  0  0  0  0  0  0  0  0  0
   -1.7996   -0.6532   -1.6960 H   0  0  0  0  0  0  0  0  0  0  0  0
  1  2  3  0
  1  6  1  0
  2  3  1  0
  3  4  1  0
  3  7  1  0
  4  8  1  0
  4  9  1  0
  4 10  1  0
  5 13  1  0
 11 12  1  0
 11 17  1  0
 11 18  1  0
 11 19  1  0
 12 13  1  0
 12 20  1  0
 12 21  1  0
 13 14  1  0
 13 22  1  0
 14 15  1  0
 15 16  1  0
 15 23  1  0
 15 24  1  0
 16 25  1  0
 16 26  1  0
 16 27  1  0
M  RAD  1   3   2
M  END
>  <reaction>  (3) 
rmg_rxn_13986

>  <type>  (3) 
ts

>  <mol_properties>  (3) 
{"0": {"label": "*3", "atom_type": "Ct"}, "1": {"label": "*4", "atom_type": "Ct"}, "4": {"label": "*2", "atom_type": "H0"}, "12": {"label": "*1", "atom_type": "Cs"}, "13": {"label": "*0", "atom_type": "O2s"}}

$$$$
