
     RDKit          3D

  9  8  0  0  0  0  0  0  0  0999 V2000
    1.0771   -1.3766    0.1391 C   0  0  0  0  0  0  0  0  0  0  0  0
    0.6246   -0.0228    0.6083 C   0  0  0  0  0  0  0  0  0  0  0  0
   -0.7454    0.6849   -0.3547 S   0  0  0  0  0  0  0  0  0  0  0  0
    0.2901   -2.1087    0.3166 H   0  0  0  0  0  0  0  0  0  0  0  0
    1.9044   -1.7858    0.7198 H   0  0  0  0  0  0  0  0  0  0  0  0
    1.2569   -1.4421   -0.9323 H   0  0  0  0  0  0  0  0  0  0  0  0
    1.4334    0.7077    0.5138 H   0  0  0  0  0  0  0  0  0  0  0  0
    0.3420   -0.0449    1.6613 H   0  0  0  0  0  0  0  0  0  0  0  0
   -1.6578   -0.2218    0.0331 H   0  0  0  0  0  0  0  0  0  0  0  0
  1  2  1  0
  1  4  1  0
  1  5  1  0
  1  6  1  0
  2  3  1  0
  2  7  1  0
  2  8  1  0
  3  9  1  0
M  END
>  <reaction>  (1) 
rmg_rxn_2753

>  <type>  (1) 
r1h

>  <mol_properties>  (1) 
{"0": {"label": "donator", "atom_type": "Cs"}, "3": {"label": "d_hydrogen", "atom_type": "H0"}}

>  <electro_map>  (1) 
{"3": {"R": null, "A": null, "D": null}, "0": {"R": 1.089404656886888, "A": null, "D": null}, "1": {"R": 1.5025353462771296, "A": 109.69774189725219, "D": null}, "2": {"R": 1.8180484690316403, "A": 100.9566189340679, "D": 121.34598830412784}, "8": {"R": 1.3434586319966204, "A": 95.51786382441485, "D": 67.08765911146219}, "4": {"R": 3.9506070406951683, "A": 72.84318561667982, "D": 340.64505476361245}, "5": {"R": 1.8074438670452622, "A": 56.13599968181706, "D": 293.2555659510271}, "6": {"R": 2.5968757087715733, "A": 67.91853585018599, "D": 60.481933526913664}, "7": {"R": 1.7533380824316034, "A": 88.09559615157345, "D": 300.4447693289448}}

$$$$

     RDKit          3D

 18 17  0  0  0  0  0  0  0  0999 V2000
    3.2804   -0.7239    0.0570 H   0  0  0  0  0  0  0  0  0  0  0  0
    2.5744   -1.5385    0.2062 C   0  0  0  0  0  0  0  0  0  0  0  0
    1.2880   -1.2147   -0.4866 C   0  0  0  0  0  0  0  0  0  0  0  0
    0.6038   -0.2166    0.2347 O   0  0  0  0  0  0  0  0  0  0  0  0
   -0.6282    0.1437   -0.3463 C   0  0  0  0  0  0  0  0  0  0  0  0
   -1.2877    1.2082    0.5044 C   0  0  0  0  0  0  0  0  0  0  0  0
   -2.6235    1.6535   -0.0752 C   0  0  0  0  0  0  0  0  0  0  0  0
    2.4784   -1.6372    1.2856 H   0  0  0  0  0  0  0  0  0  0  0  0
    3.1014   -2.3798   -0.2397 H   0  0  0  0  0  0  0  0  0  0  0  0
    0.6526   -2.1122   -0.5593 H   0  0  0  0  0  0  0  0  0  0  0  0
    1.4788   -0.8725   -1.5152 H   0  0  0  0  0  0  0  0  0  0  0  0
   -0.4648    0.5192   -1.3682 H   0  0  0  0  0  0  0  0  0  0  0  0
   -1.2771   -0.7407   -0.4251 H   0  0  0  0  0  0  0  0  0  0  0  0
   -0.6101    2.0617    0.5878 H   0  0  0  0  0  0  0  0  0  0  0  0
   -1.4241    0.8134    1.5138 H   0  0  0  0  0  0  0  0  0  0  0  0
   -2.5000    2.0733   -1.0760 H   0  0  0  0  0  0  0  0  0  0  0  0
   -3.0846    2.4181    0.5502 H   0  0  0  0  0  0  0  0  0  0  0  0
   -3.3227    0.8173   -0.1483 H   0  0  0  0  0  0  0  0  0  0  0  0
  1  2  1  0
  2  3  1  0
  2  8  1  0
  2  9  1  0
  3  4  1  0
  3 10  1  0
  3 11  1  0
  4  5  1  0
  5  6  1  0
  5 12  1  0
  5 13  1  0
  6  7  1  0
  6 14  1  0
  6 15  1  0
  7 16  1  0
  7 17  1  0
  7 18  1  0
M  END
>  <reaction>  (2) 
rmg_rxn_2753

>  <type>  (2) 
r2h

>  <mol_properties>  (2) 
{"0": {"label": "a_hydrogen", "atom_type": "H0"}, "1": {"label": "acceptor", "atom_type": "Cs"}}

>  <electro_map>  (2) 
{"0": {"R": null, "A": null, "D": null}, "1": {"R": 1.0882051242730857, "A": null, "D": null}, "2": {"R": 1.4965056407655193, "A": 109.40577104508593, "D": null}, "3": {"R": 1.4087965478120452, "A": 99.26026942626932, "D": 113.83657734863061}, "4": {"R": 1.4090064266754065, "A": 113.24587929674733, "D": 180.38335962135744}, "5": {"R": 1.513899144984666, "A": 109.20691073651247, "D": 179.5355191740176}, "6": {"R": 1.522617686817259, "A": 111.95363367720574, "D": 179.5155182046163}, "7": {"R": 6.221711800090765, "A": 16.807920773660715, "D": 22.183835921353815}, "8": {"R": 1.8071656490075505, "A": 108.3852389498512, "D": 223.00630168423706}, "9": {"R": 2.4840339090609747, "A": 74.00782830731988, "D": 332.1549636489556}, "10": {"R": 1.7700593341429882, "A": 71.62717984089333, "D": 105.38869164354145}, "11": {"R": 2.3950245584013246, "A": 89.71656244197325, "D": 205.97383827447212}, "12": {"R": 1.7711403374924228, "A": 89.51226170086859, "D": 359.5455087329382}, "13": {"R": 3.0535946034864234, "A": 54.801405159067926, "D": 117.03941535244164}, "14": {"R": 1.7544630904143355, "A": 54.60533714247314, "D": 179.5620444570231}, "15": {"R": 3.0744216250959173, "A": 54.9855663808752, "D": 297.87419279968765}, "16": {"R": 1.7621841661719704, "A": 54.469329526734434, "D": 255.37149532595697}, "17": {"R": 1.7627231077924528, "A": 60.093620920639836, "D": 293.45734718718006}}

$$$$

     RDKit          3D

 26 24  0  0  0  0  0  0  0  0999 V2000
    3.0675   -0.3622   -0.1308 C   0  0  0  0  0  0  0  0  0  0  0  0
    2.6150    0.9916    0.3384 C   0  0  0  0  0  0  0  0  0  0  0  0
    1.2449    1.6993   -0.6246 S   0  0  0  0  0  0  0  0  0  0  0  0
    2.0976   -1.2644    0.0879 H   0  0  0  0  0  0  0  0  0  0  0  0
    3.8948   -0.7714    0.4499 H   0  0  0  0  0  0  0  0  0  0  0  0
    3.2472   -0.4277   -1.2022 H   0  0  0  0  0  0  0  0  0  0  0  0
    3.4238    1.7220    0.2439 H   0  0  0  0  0  0  0  0  0  0  0  0
    2.3324    0.9694    1.3914 H   0  0  0  0  0  0  0  0  0  0  0  0
    0.3326    0.7926   -0.2368 H   0  0  0  0  0  0  0  0  0  0  0  0
    1.2216   -2.2751    0.2730 C   0  0  0  0  0  3  0  0  0  0  0  0
   -0.0648   -1.9513   -0.4198 C   0  0  0  0  0  0  0  0  0  0  0  0
   -0.7490   -0.9532    0.3015 O   0  0  0  0  0  0  0  0  0  0  0  0
   -1.9810   -0.5929   -0.2796 C   0  0  0  0  0  0  0  0  0  0  0  0
   -2.6405    0.4716    0.5712 C   0  0  0  0  0  0  0  0  0  0  0  0
   -3.9762    0.9168   -0.0085 C   0  0  0  0  0  0  0  0  0  0  0  0
    1.1256   -2.3739    1.3524 H   0  0  0  0  0  0  0  0  0  0  0  0
    1.7486   -3.1164   -0.1729 H   0  0  0  0  0  0  0  0  0  0  0  0
   -0.7002   -2.8488   -0.4925 H   0  0  0  0  0  0  0  0  0  0  0  0
    0.1260   -1.6091   -1.4484 H   0  0  0  0  0  0  0  0  0  0  0  0
   -1.8176   -0.2174   -1.3015 H   0  0  0  0  0  0  0  0  0  0  0  0
   -2.6299   -1.4774   -0.3583 H   0  0  0  0  0  0  0  0  0  0  0  0
   -1.9629    1.3250    0.6546 H   0  0  0  0  0  0  0  0  0  0  0  0
   -2.7769    0.0768    1.5806 H   0  0  0  0  0  0  0  0  0  0  0  0
   -3.8528    1.3366   -1.0092 H   0  0  0  0  0  0  0  0  0  0  0  0
   -4.4374    1.6815    0.6170 H   0  0  0  0  0  0  0  0  0  0  0  0
   -4.6755    0.0806   -0.0815 H   0  0  0  0  0  0  0  0  0  0  0  0
  1  2  1  0
  1  4  1  0
  1  5  1  0
  1  6  1  0
  2  3  1  0
  2  7  1  0
  2  8  1  0
  3  9  1  0
 10 11  1  0
 10 16  1  0
 10 17  1  0
 11 12  1  0
 11 18  1  0
 11 19  1  0
 12 13  1  0
 13 14  1  0
 13 20  1  0
 13 21  1  0
 14 15  1  0
 14 22  1  0
 14 23  1  0
 15 24  1  0
 15 25  1  0
 15 26  1  0
M  RAD  1  10   2
M  END
>  <reaction>  (3) 
rmg_rxn_2753

>  <type>  (3) 
ts

>  <mol_properties>  (3) 
{"0": {"label": "*1", "atom_type": "Cs"}, "1": {"label": "*0", "atom_type": "Cs"}, "3": {"label": "*2", "atom_type": "H0"}, "9": {"label": "*3", "atom_type": "Cs"}, "10": {"label": "*4", "atom_type": "Cs"}}

$$$$
