
     RDKit          3D

 10  9  0  0  0  0  0  0  0  0999 V2000
    0.4027   -0.7442   -1.7691 C   0  0  0  0  0  0  0  0  0  0  0  0
    0.2517   -0.3095   -0.5378 C   0  0  0  0  0  0  0  0  0  0  0  0
    0.1886    0.0670    0.6815 C   0  0  0  0  0  0  0  0  0  0  0  0
   -0.7660    0.8922    1.4687 C   0  0  0  0  0  0  0  0  0  0  0  0
    0.9373   -0.1592   -2.5079 H   0  0  0  0  0  0  0  0  0  0  0  0
   -0.0219   -1.6895   -2.0853 H   0  0  0  0  0  0  0  0  0  0  0  0
    1.0263   -0.2781    1.2875 H   0  0  0  0  0  0  0  0  0  0  0  0
   -1.1879    0.3116    2.2921 H   0  0  0  0  0  0  0  0  0  0  0  0
   -1.5854    1.2568    0.8478 H   0  0  0  0  0  0  0  0  0  0  0  0
   -0.2553    1.7524    1.9083 H   0  0  0  0  0  0  0  0  0  0  0  0
  1  2  2  0
  1  5  1  0
  1  6  1  0
  2  3  2  0
  3  4  1  0
  3  7  1  0
  4  8  1  0
  4  9  1  0
  4 10  1  0
M  END
>  <reaction>  (1) 
rmg_rxn_13846

>  <type>  (1) 
r1h

>  <mol_properties>  (1) 
{"2": {"label": "donator", "atom_type": "Cd"}, "6": {"label": "d_hydrogen", "atom_type": "H0"}}

>  <electro_map>  (1) 
{"6": {"R": null, "A": null, "D": null}, "2": {"R": 1.0900000456713745, "A": null, "D": null}, "1": {"R": 1.277647303171685, "A": 113.53735001042202, "D": null}, "0": {"R": 1.3144959305344392, "A": 145.34205507001107, "D": 180.07381528628514}, "3": {"R": 3.8114339870284497, "A": 13.359278965189672, "D": 180.55097248503404}, "4": {"R": 4.452002882539239, "A": 12.177062690350807, "D": 99.06558457244938}, "5": {"R": 1.8548483363459496, "A": 78.0823545887377, "D": 8.768631161588246}, "7": {"R": 4.95234823303453, "A": 89.41352260298514, "D": 357.1079201042672}, "8": {"R": 1.7713021349721605, "A": 63.10885091746292, "D": 54.76260631810077}, "9": {"R": 1.7718851294387765, "A": 59.51647474400169, "D": 252.12586124206894}}

$$$$

     RDKit          3D

 14 13  0  0  0  0  0  0  0  0999 V2000
   -1.4040   -0.0447   -0.2114 H   0  0  0  0  0  0  0  0  0  0  0  0
   -0.5346   -1.8808    0.0748 C   0  0  0  0  0  0  0  0  0  0  0  0
   -0.5214   -0.3994    0.3239 C   0  0  0  0  0  0  0  0  0  0  0  0
    0.6001    0.3841   -0.3024 C   0  0  0  0  0  0  0  0  0  0  0  0
    0.4899    1.8853   -0.0716 C   0  0  0  0  0  0  0  0  0  0  0  0
    0.3541   -2.3610    0.5001 H   0  0  0  0  0  0  0  0  0  0  0  0
   -0.5397   -2.0905   -0.9978 H   0  0  0  0  0  0  0  0  0  0  0  0
   -1.4127   -2.3546    0.5155 H   0  0  0  0  0  0  0  0  0  0  0  0
   -0.7341   -0.1141    1.3557 H   0  0  0  0  0  0  0  0  0  0  0  0
    0.6181    0.1747   -1.3773 H   0  0  0  0  0  0  0  0  0  0  0  0
    1.5575    0.0181    0.0921 H   0  0  0  0  0  0  0  0  0  0  0  0
    0.4782    2.1178    0.9958 H   0  0  0  0  0  0  0  0  0  0  0  0
    1.3284    2.4188   -0.5212 H   0  0  0  0  0  0  0  0  0  0  0  0
   -0.4302    2.2755   -0.5115 H   0  0  0  0  0  0  0  0  0  0  0  0
  1  3  1  0
  2  3  1  0
  2  6  1  0
  2  7  1  0
  2  8  1  0
  3  4  1  0
  3  9  1  0
  4  5  1  0
  4 10  1  0
  4 11  1  0
  5 12  1  0
  5 13  1  0
  5 14  1  0
M  END
>  <reaction>  (2) 
rmg_rxn_13846

>  <type>  (2) 
r2h

>  <mol_properties>  (2) 
{"0": {"label": "a_hydrogen", "atom_type": "H0"}, "2": {"label": "acceptor", "atom_type": "Cs"}}

>  <electro_map>  (2) 
{"0": {"R": null, "A": null, "D": null}, "2": {"R": 1.0914686661651245, "A": null, "D": null}, "3": {"R": 1.504653784511815, "A": 103.25688318390694, "D": null}, "1": {"R": 2.561187687232659, "A": 51.38004763378124, "D": 38.175688603824476}, "4": {"R": 3.9057238415172533, "A": 12.979829353177731, "D": 5.6509804514171185}, "5": {"R": 4.286712947929826, "A": 14.42711579930722, "D": 307.4893021831298}, "6": {"R": 1.7651615716179145, "A": 75.58883801028651, "D": 36.365270064822965}, "7": {"R": 1.7668865052082399, "A": 60.031968047478905, "D": 259.45254198829497}, "8": {"R": 2.4872234976749628, "A": 91.14282774669677, "D": 71.35792011022498}, "9": {"R": 3.0628995050925027, "A": 84.48691429139507, "D": 2.0504425220233697}, "10": {"R": 1.7510266017625078, "A": 58.643015112417565, "D": 249.3815248439086}, "11": {"R": 2.527899325828835, "A": 89.81060643413997, "D": 300.3055231229535}, "12": {"R": 1.7649044490810222, "A": 68.20397851780952, "D": 301.0807606936935}, "13": {"R": 1.76449846095869, "A": 60.08481658582339, "D": 102.54614212592637}}

$$$$

     RDKit          3D

 23 21  0  0  0  0  0  0  0  0999 V2000
   -1.0610   -0.5755   -2.6524 C   0  0  0  0  0  0  0  0  0  0  0  0
   -1.2120   -0.1407   -1.4211 C   0  0  0  0  0  0  0  0  0  0  0  0
   -1.2751    0.2357   -0.2018 C   0  0  0  0  0  0  0  0  0  0  0  0
   -2.2297    1.0609    0.5854 C   0  0  0  0  0  0  0  0  0  0  0  0
   -0.5264    0.0095   -3.3912 H   0  0  0  0  0  0  0  0  0  0  0  0
   -1.4857   -1.5208   -2.9687 H   0  0  0  0  0  0  0  0  0  0  0  0
   -0.2681   -0.1791    0.5267 H   0  0  0  0  0  0  0  0  0  0  0  0
   -2.6516    0.4803    1.4088 H   0  0  0  0  0  0  0  0  0  0  0  0
   -3.0491    1.4255   -0.0356 H   0  0  0  0  0  0  0  0  0  0  0  0
   -1.7190    1.9211    1.0250 H   0  0  0  0  0  0  0  0  0  0  0  0
    0.8222   -2.1041    0.9469 C   0  0  0  0  0  0  0  0  0  0  0  0
    0.8354   -0.6226    1.1960 C   0  0  0  0  0  3  0  0  0  0  0  0
    1.9569    0.1608    0.5696 C   0  0  0  0  0  0  0  0  0  0  0  0
    1.8468    1.6620    0.8004 C   0  0  0  0  0  0  0  0  0  0  0  0
    1.7109   -2.5842    1.3721 H   0  0  0  0  0  0  0  0  0  0  0  0
    0.8171   -2.3138   -0.1258 H   0  0  0  0  0  0  0  0  0  0  0  0
   -0.0559   -2.5778    1.3876 H   0  0  0  0  0  0  0  0  0  0  0  0
    0.6227   -0.3373    2.2278 H   0  0  0  0  0  0  0  0  0  0  0  0
    1.9749   -0.0486   -0.5052 H   0  0  0  0  0  0  0  0  0  0  0  0
    2.9143   -0.2051    0.9642 H   0  0  0  0  0  0  0  0  0  0  0  0
    1.8350    1.8945    1.8679 H   0  0  0  0  0  0  0  0  0  0  0  0
    2.6852    2.1956    0.3509 H   0  0  0  0  0  0  0  0  0  0  0  0
    0.9266    2.0522    0.3606 H   0  0  0  0  0  0  0  0  0  0  0  0
  1  2  2  0
  1  5  1  0
  1  6  1  0
  2  3  2  0
  3  4  1  0
  3  7  1  0
  4  8  1  0
  4  9  1  0
  4 10  1  0
 11 12  1  0
 11 15  1  0
 11 16  1  0
 11 17  1  0
 12 13  1  0
 12 18  1  0
 13 14  1  0
 13 19  1  0
 13 20  1  0
 14 21  1  0
 14 22  1  0
 14 23  1  0
M  RAD  1  12   2
M  END
>  <reaction>  (3) 
rmg_rxn_13846

>  <type>  (3) 
ts

>  <mol_properties>  (3) 
{"1": {"label": "*0", "atom_type": "Cdd"}, "2": {"label": "*1", "atom_type": "Cd"}, "6": {"label": "*2", "atom_type": "H0"}, "11": {"label": "*3", "atom_type": "Cs"}, "12": {"label": "*4", "atom_type": "Cs"}}

$$$$
