
     RDKit          3D

 10  9  0  0  0  0  0  0  0  0999 V2000
    0.0017    1.3059    1.3537 C   0  0  0  0  0  0  0  0  0  0  0  0
    0.0425    0.2725    0.6310 C   0  0  0  0  0  0  0  0  0  0  0  0
   -0.0419   -0.7958   -0.1485 C   0  0  0  0  0  0  0  0  0  0  0  0
    0.0451   -0.7585   -1.6397 C   0  0  0  0  0  0  0  0  0  0  0  0
   -0.9866    1.7135    1.4766 H   0  0  0  0  0  0  0  0  0  0  0  0
    0.6892    1.9306    1.8969 H   0  0  0  0  0  0  0  0  0  0  0  0
   -0.1703   -1.7628    0.3284 H   0  0  0  0  0  0  0  0  0  0  0  0
    0.8800   -1.3705   -1.9905 H   0  0  0  0  0  0  0  0  0  0  0  0
    0.1765    0.2578   -2.0063 H   0  0  0  0  0  0  0  0  0  0  0  0
   -0.8644   -1.1749   -2.0803 H   0  0  0  0  0  0  0  0  0  0  0  0
  1  2  2  0
  1  5  1  0
  1  6  1  0
  2  3  2  0
  3  4  1  0
  3  7  1  0
  4  8  1  0
  4  9  1  0
  4 10  1  0
M  END
>  <reaction>  (1) 
rmg_rxn_13993

>  <type>  (1) 
r1h

>  <mol_properties>  (1) 
{"0": {"label": "donator", "atom_type": "Cd"}, "4": {"label": "d_hydrogen", "atom_type": "H0"}}

>  <electro_map>  (1) 
{"4": {"R": null, "A": null, "D": null}, "0": {"R": 1.0761470064865708, "A": null, "D": null}, "1": {"R": 1.2616979166206428, "A": 113.91379501938634, "D": null}, "2": {"R": 1.3250688283065737, "A": 144.2993665106509, "D": 180.6746130946829}, "3": {"R": 1.4942713063255813, "A": 124.28019693283922, "D": 84.75260379866987}, "5": {"R": 4.489346290697327, "A": 40.27784987732408, "D": 10.207843373263884}, "6": {"R": 4.103681093463003, "A": 29.508705074827677, "D": 5.202475344772429}, "7": {"R": 2.5756824366851667, "A": 96.98786597666779, "D": 21.89123116504645}, "8": {"R": 1.7739027984163536, "A": 89.20113253875385, "D": 318.0382348729067}, "9": {"R": 1.7724885796527405, "A": 59.42144734880667, "D": 292.6885089655506}}

$$$$

     RDKit          3D

  3  2  0  0  0  0  0  0  0  0999 V2000
   -0.0382    0.0407   -0.0224 S   0  0  0  0  0  0  0  0  0  0  0  0
   -0.1238   -0.7292    1.0708 H   0  0  0  0  0  0  0  0  0  0  0  0
    1.1588   -0.4848   -0.3172 H   0  0  0  0  0  0  0  0  0  0  0  0
  1  2  1  0
  1  3  1  0
M  END
>  <reaction>  (2) 
rmg_rxn_13993

>  <type>  (2) 
r2h

>  <mol_properties>  (2) 
{"0": {"label": "acceptor", "atom_type": "S2s"}, "2": {"label": "a_hydrogen", "atom_type": "H0"}}

>  <electro_map>  (2) 
{"2": {"R": null, "A": null, "D": null}, "0": {"R": 1.33999997665633, "A": null, "D": null}, "1": {"R": 1.3398305375140045, "A": 90.64344293551898, "D": null}}

$$$$

     RDKit          3D

 12 10  0  0  0  0  0  0  0  0999 V2000
   -1.6878    1.4491    0.9857 S   0  0  0  0  0  1  0  0  0  0  0  0
   -1.7734    0.6791    2.0789 H   0  0  0  0  0  0  0  0  0  0  0  0
    0.9617    0.3199    0.4889 C   0  0  0  0  0  0  0  0  0  0  0  0
    1.0025   -0.7135   -0.2338 C   0  0  0  0  0  0  0  0  0  0  0  0
    0.9181   -1.7818   -1.0132 C   0  0  0  0  0  0  0  0  0  0  0  0
    1.0051   -1.7445   -2.5045 C   0  0  0  0  0  0  0  0  0  0  0  0
   -0.3154    0.8466    0.6477 H   0  0  0  0  0  0  0  0  0  0  0  0
    1.6492    0.9446    1.0322 H   0  0  0  0  0  0  0  0  0  0  0  0
    0.7897   -2.7488   -0.5364 H   0  0  0  0  0  0  0  0  0  0  0  0
    1.8400   -2.3566   -2.8553 H   0  0  0  0  0  0  0  0  0  0  0  0
    1.1364   -0.7282   -2.8710 H   0  0  0  0  0  0  0  0  0  0  0  0
    0.0955   -2.1610   -2.9451 H   0  0  0  0  0  0  0  0  0  0  0  0
  1  2  1  0
  3  4  2  0
  3  7  1  0
  3  8  1  0
  4  5  2  0
  5  6  1  0
  5  9  1  0
  6 10  1  0
  6 11  1  0
  6 12  1  0
M  RAD  1   1   2
M  END
>  <reaction>  (3) 
rmg_rxn_13993

>  <type>  (3) 
ts

>  <mol_properties>  (3) 
{"0": {"label": "*3", "atom_type": "S2s"}, "1": {"label": "*4", "atom_type": "H0"}, "2": {"label": "*1", "atom_type": "Cd"}, "3": {"label": "*0", "atom_type": "Cdd"}, "6": {"label": "*2", "atom_type": "H0"}}

$$$$
