
     RDKit          3D

 10  9  0  0  0  0  0  0  0  0999 V2000
   -0.4595    0.8046   -1.6444 C   0  0  0  0  0  0  0  0  0  0  0  0
    0.0836    0.3456   -0.5857 C   0  0  0  0  0  0  0  0  0  0  0  0
    0.5743   -0.0495    0.5716 C   0  0  0  0  0  0  0  0  0  0  0  0
   -0.1183   -1.0079    1.4953 C   0  0  0  0  0  0  0  0  0  0  0  0
   -1.0507    1.6991   -1.5186 H   0  0  0  0  0  0  0  0  0  0  0  0
   -0.4384    0.4425   -2.6612 H   0  0  0  0  0  0  0  0  0  0  0  0
    1.5575    0.3096    0.8604 H   0  0  0  0  0  0  0  0  0  0  0  0
    0.4065   -1.9664    1.5313 H   0  0  0  0  0  0  0  0  0  0  0  0
   -1.1450   -1.1939    1.1812 H   0  0  0  0  0  0  0  0  0  0  0  0
   -0.1350   -0.6205    2.5178 H   0  0  0  0  0  0  0  0  0  0  0  0
  1  2  2  0
  1  5  1  0
  1  6  1  0
  2  3  2  0
  3  4  1  0
  3  7  1  0
  4  8  1  0
  4  9  1  0
  4 10  1  0
M  END
>  <reaction>  (1) 
rmg_rxn_14073

>  <type>  (1) 
r1h

>  <mol_properties>  (1) 
{"0": {"label": "donator", "atom_type": "Cd"}, "4": {"label": "d_hydrogen", "atom_type": "H0"}}

>  <electro_map>  (1) 
{"4": {"R": null, "A": null, "D": null}, "0": {"R": 1.0795906719064836, "A": null, "D": null}, "1": {"R": 1.275360854825193, "A": 115.76135913727211, "D": null}, "2": {"R": 1.3175853123993297, "A": 145.58294139870003, "D": 181.82912514124862}, "3": {"R": 1.5004920152542622, "A": 124.07958561460451, "D": 79.96358565914929}, "5": {"R": 4.413935890745064, "A": 40.877053911598104, "D": 12.624811655369971}, "6": {"R": 4.050064067569304, "A": 30.079571025287542, "D": 7.06025503665732}, "7": {"R": 2.6372493859859096, "A": 91.97337666734245, "D": 22.82093590515059}, "8": {"R": 1.7682032033131223, "A": 87.45089246036524, "D": 308.1977407030214}, "9": {"R": 1.7706648204135078, "A": 59.43762727258744, "D": 294.663289954418}}

$$$$

     RDKit          3D

 14 13  0  0  0  0  0  0  0  0999 V2000
    1.0805    0.2717   -2.7926 H   0  0  0  0  0  0  0  0  0  0  0  0
    0.5163    1.1414   -2.4538 C   0  0  0  0  0  0  0  0  0  0  0  0
    0.6469    1.1643   -1.0928 O   0  0  0  0  0  0  0  0  0  0  0  0
   -0.1182    0.1798   -0.4229 C   0  0  0  0  0  0  0  0  0  0  0  0
    0.3801    0.1045    1.0006 C   0  0  0  0  0  0  0  0  0  0  0  0
   -0.2968   -0.9499    1.8230 C   0  0  0  0  0  0  0  0  0  0  0  0
   -1.1535   -1.6883    1.4200 O   0  0  0  0  0  0  0  0  0  0  0  0
   -0.5045    0.9794   -2.8137 H   0  0  0  0  0  0  0  0  0  0  0  0
    1.0100    2.0032   -2.8954 H   0  0  0  0  0  0  0  0  0  0  0  0
   -0.0012   -0.7895   -0.9150 H   0  0  0  0  0  0  0  0  0  0  0  0
   -1.1810    0.4454   -0.4560 H   0  0  0  0  0  0  0  0  0  0  0  0
    1.4557   -0.1047    1.0051 H   0  0  0  0  0  0  0  0  0  0  0  0
    0.2633    1.0656    1.5126 H   0  0  0  0  0  0  0  0  0  0  0  0
    0.0552   -1.0192    2.8732 H   0  0  0  0  0  0  0  0  0  0  0  0
  1  2  1  0
  2  3  1  0
  2  8  1  0
  2  9  1  0
  3  4  1  0
  4  5  1  0
  4 10  1  0
  4 11  1  0
  5  6  1  0
  5 12  1  0
  5 13  1  0
  6  7  2  0
  6 14  1  0
M  END
>  <reaction>  (2) 
rmg_rxn_14073

>  <type>  (2) 
r2h

>  <mol_properties>  (2) 
{"0": {"label": "a_hydrogen", "atom_type": "H0"}, "1": {"label": "acceptor", "atom_type": "Cs"}}

>  <electro_map>  (2) 
{"0": {"R": null, "A": null, "D": null}, "1": {"R": 1.090685884803825, "A": null, "D": null}, "2": {"R": 1.3674802194311928, "A": 105.84450819925837, "D": null}, "3": {"R": 1.4154265342520416, "A": 102.26272736284037, "D": 115.96895739964701}, "4": {"R": 1.5099881145186371, "A": 107.60567881523104, "D": 166.31079047262222}, "5": {"R": 1.4987712436726244, "A": 113.78627951301017, "D": 182.7745528921405}, "6": {"R": 1.2006667152636354, "A": 124.80095223097898, "D": 0.37570595037921967}, "7": {"R": 5.046011363678549, "A": 82.22384738687451, "D": 358.2254166314642}, "8": {"R": 1.8299269313503808, "A": 116.08309482747903, "D": 14.853776983466377}, "9": {"R": 3.5698519687254935, "A": 45.82322320918978, "D": 18.99566580633652}, "10": {"R": 1.768607532168807, "A": 77.68173900307194, "D": 297.333889006088}, "11": {"R": 3.064338599278055, "A": 54.85452692744381, "D": 267.24224016319846}, "12": {"R": 1.7461213316648472, "A": 55.296392776694354, "D": 183.08094993929163}, "13": {"R": 2.498102517063801, "A": 69.87020613064897, "D": 100.59392749102878}}

$$$$

     RDKit          3D

 23 21  0  0  0  0  0  0  0  0999 V2000
    1.0813   -0.6537   -2.7666 C   0  0  0  0  0  0  0  0  0  0  0  0
    1.6244   -1.1126   -1.7078 C   0  0  0  0  0  0  0  0  0  0  0  0
    2.1151   -1.5077   -0.5506 C   0  0  0  0  0  3  0  0  0  0  0  0
    1.4225   -2.4662    0.3731 C   0  0  0  0  0  0  0  0  0  0  0  0
    0.3416    0.4656   -2.6091 H   0  0  0  0  0  0  0  0  0  0  0  0
    1.1024   -1.0158   -3.7834 H   0  0  0  0  0  0  0  0  0  0  0  0
    3.0983   -1.1486   -0.2618 H   0  0  0  0  0  0  0  0  0  0  0  0
    1.9473   -3.4246    0.4091 H   0  0  0  0  0  0  0  0  0  0  0  0
    0.3958   -2.6521    0.0590 H   0  0  0  0  0  0  0  0  0  0  0  0
    1.4058   -2.0788    1.3956 H   0  0  0  0  0  0  0  0  0  0  0  0
   -0.3531    1.5365   -2.1920 C   0  0  0  0  0  0  0  0  0  0  0  0
   -0.2224    1.5594   -0.8310 O   0  0  0  0  0  0  0  0  0  0  0  0
   -0.9875    0.5749   -0.1610 C   0  0  0  0  0  0  0  0  0  0  0  0
   -0.4893    0.4996    1.2624 C   0  0  0  0  0  0  0  0  0  0  0  0
   -1.1661   -0.5548    2.0848 C   0  0  0  0  0  0  0  0  0  0  0  0
   -2.0229   -1.2932    1.6818 O   0  0  0  0  0  0  0  0  0  0  0  0
   -1.3739    1.3745   -2.5519 H   0  0  0  0  0  0  0  0  0  0  0  0
    0.1407    2.3983   -2.6336 H   0  0  0  0  0  0  0  0  0  0  0  0
   -0.8705   -0.3944   -0.6532 H   0  0  0  0  0  0  0  0  0  0  0  0
   -2.0504    0.8405   -0.1942 H   0  0  0  0  0  0  0  0  0  0  0  0
    0.5864    0.2904    1.2670 H   0  0  0  0  0  0  0  0  0  0  0  0
   -0.6060    1.4607    1.7745 H   0  0  0  0  0  0  0  0  0  0  0  0
   -0.8141   -0.6241    3.1350 H   0  0  0  0  0  0  0  0  0  0  0  0
  1  2  3  0
  1  6  1  0
  2  3  1  0
  3  4  1  0
  3  7  1  0
  4  8  1  0
  4  9  1  0
  4 10  1  0
  5 11  1  0
 11 12  1  0
 11 17  1  0
 11 18  1  0
 12 13  1  0
 13 14  1  0
 13 19  1  0
 13 20  1  0
 14 15  1  0
 14 21  1  0
 14 22  1  0
 15 16  2  0
 15 23  1  0
M  RAD  1   3   2
M  END
>  <reaction>  (3) 
rmg_rxn_14073

>  <type>  (3) 
ts

>  <mol_properties>  (3) 
{"0": {"label": "*3", "atom_type": "Ct"}, "1": {"label": "*4", "atom_type": "Ct"}, "4": {"label": "*2", "atom_type": "H0"}, "10": {"label": "*1", "atom_type": "Cs"}, "11": {"label": "*0", "atom_type": "O2s"}}

$$$$
