
     RDKit          3D

 13 12  0  0  0  0  0  0  0  0999 V2000
    1.6317    1.1685    1.1945 N   0  0  0  0  0  0  0  0  0  0  0  0
    0.6723    1.0088    0.2394 N   0  0  0  0  0  0  0  0  0  0  0  0
   -1.3352   -1.7773   -1.0838 C   0  0  0  0  0  0  0  0  0  0  0  0
   -1.0322   -0.3377   -0.7503 C   0  0  0  0  0  0  0  0  0  0  0  0
    0.0060   -0.0813    0.2370 C   0  0  0  0  0  0  0  0  0  0  0  0
   -0.5309   -2.2274   -1.6723 H   0  0  0  0  0  0  0  0  0  0  0  0
   -1.4613   -2.3717   -0.1763 H   0  0  0  0  0  0  0  0  0  0  0  0
   -2.2585   -1.8545   -1.6591 H   0  0  0  0  0  0  0  0  0  0  0  0
   -0.9601    0.3261   -1.6102 H   0  0  0  0  0  0  0  0  0  0  0  0
   -1.9651   -0.0032   -0.2997 H   0  0  0  0  0  0  0  0  0  0  0  0
    0.1668   -0.8392    1.0146 H   0  0  0  0  0  0  0  0  0  0  0  0
    1.4770    0.6592    2.0583 H   0  0  0  0  0  0  0  0  0  0  0  0
    1.8208    2.1443    1.3499 H   0  0  0  0  0  0  0  0  0  0  0  0
  1  2  1  0
  1 12  1  0
  1 13  1  0
  2  5  2  3
  3  4  1  0
  3  6  1  0
  3  7  1  0
  3  8  1  0
  4  5  1  0
  4  9  1  0
  4 10  1  0
  5 11  1  0
M  END
>  <reaction>  (1) 
rmg_rxn_13981

>  <type>  (1) 
r1h

>  <mol_properties>  (1) 
{"3": {"label": "donator", "atom_type": "Cs"}, "9": {"label": "d_hydrogen", "atom_type": "H0"}}

>  <electro_map>  (1) 
{"9": {"R": null, "A": null, "D": null}, "3": {"R": 1.0886914030088657, "A": null, "D": null}, "4": {"R": 1.455532417809103, "A": 106.04058799192559, "D": null}, "1": {"R": 1.2776694626210712, "A": 118.08054378907862, "D": 105.30213375340585}, "0": {"R": 1.3631359558504739, "A": 117.91949566041176, "D": 180.28447803563336}, "2": {"R": 4.761408707348905, "A": 32.19096582495967, "D": 13.637263110985295}, "11": {"R": 4.87012492244849, "A": 12.024239659886517, "D": 216.37969219539707}, "12": {"R": 1.6809581829499918, "A": 106.75375784235949, "D": 17.267816949051902}, "5": {"R": 5.811805273397301, "A": 58.11387957466789, "D": 347.32339932460286}, "6": {"R": 1.7676452286770448, "A": 80.46271694526894, "D": 41.826960559102666}, "7": {"R": 1.761164203663135, "A": 60.11232668585729, "D": 111.80047165142607}, "8": {"R": 2.5384320694206557, "A": 90.25786363924128, "D": 291.7183033700605}, "10": {"R": 3.0850447123794447, "A": 83.03647053007373, "D": 358.0951870313602}}

$$$$

     RDKit          3D

 10  9  0  0  0  0  0  0  0  0999 V2000
    0.7699    1.7283    0.1844 C   0  0  0  0  0  0  0  0  0  0  0  0
    0.5940    0.2951   -0.1518 C   0  0  0  0  0  0  0  0  0  0  0  0
   -1.1622   -1.5988    0.0063 C   0  0  0  0  0  0  0  0  0  0  0  0
   -0.3001   -0.6019   -0.0530 C   0  0  0  0  0  0  0  0  0  0  0  0
   -0.0931    2.1164    0.7278 H   0  0  0  0  0  0  0  0  0  0  0  0
    0.9058    2.3205   -0.7227 H   0  0  0  0  0  0  0  0  0  0  0  0
    1.6631    1.8700    0.7963 H   0  0  0  0  0  0  0  0  0  0  0  0
    1.5232   -0.0696   -0.5897 H   0  0  0  0  0  0  0  0  0  0  0  0
   -1.2074   -2.2489    0.8715 H   0  0  0  0  0  0  0  0  0  0  0  0
   -1.8624   -1.7817   -0.7998 H   0  0  0  0  0  0  0  0  0  0  0  0
  1  2  1  0
  1  5  1  0
  1  6  1  0
  1  7  1  0
  2  4  2  0
  2  8  1  0
  3  4  2  0
  3  9  1  0
  3 10  1  0
M  END
>  <reaction>  (2) 
rmg_rxn_13981

>  <type>  (2) 
r2h

>  <mol_properties>  (2) 
{"1": {"label": "acceptor", "atom_type": "Cd"}, "7": {"label": "a_hydrogen", "atom_type": "H0"}}

>  <electro_map>  (2) 
{"7": {"R": null, "A": null, "D": null}, "1": {"R": 1.0899999909882152, "A": null, "D": null}, "3": {"R": 1.2703360955368384, "A": 113.26486205372501, "D": null}, "2": {"R": 1.3193314197160806, "A": 145.04555750810317, "D": 179.87583534159714}, "0": {"R": 3.8515383582296763, "A": 11.909968929295733, "D": 179.10031772548172}, "4": {"R": 1.0912458909559286, "A": 86.18641105422128, "D": 184.23056609550753}, "5": {"R": 1.7730255320647572, "A": 35.70326413295225, "D": 240.10045108144917}, "6": {"R": 1.7560798073839734, "A": 60.3804342359625, "D": 322.5769230397869}, "8": {"R": 5.021085529667886, "A": 88.67384142388424, "D": 59.56386161409592}, "9": {"R": 1.854908941044123, "A": 88.95313514631812, "D": 4.333374432678628}}

$$$$

     RDKit          3D

 22 20  0  0  0  0  0  0  0  0999 V2000
    3.4447    1.1671    1.0021 N   0  0  0  0  0  0  0  0  0  0  0  0
    2.4853    1.0075    0.0470 N   0  0  0  0  0  0  0  0  0  0  0  0
    0.4778   -1.7787   -1.2762 C   0  0  0  0  0  0  0  0  0  0  0  0
   -1.3327    1.9547    0.4856 C   0  0  0  0  0  0  0  0  0  0  0  0
    0.7808   -0.3391   -0.9427 C   0  0  0  0  0  0  0  0  0  0  0  0
   -1.5086    0.5216    0.1494 C   0  0  0  0  0  3  0  0  0  0  0  0
    1.8190   -0.0827    0.0446 C   0  0  0  0  0  0  0  0  0  0  0  0
   -3.2648   -1.3723    0.3075 C   0  0  0  0  0  0  0  0  0  0  0  0
   -2.4027   -0.3754    0.2482 C   0  0  0  0  0  0  0  0  0  0  0  0
   -2.1957    2.3428    1.0290 H   0  0  0  0  0  0  0  0  0  0  0  0
   -1.1968    2.5470   -0.4215 H   0  0  0  0  0  0  0  0  0  0  0  0
   -0.4395    2.0965    1.0975 H   0  0  0  0  0  0  0  0  0  0  0  0
    1.2820   -2.2288   -1.8647 H   0  0  0  0  0  0  0  0  0  0  0  0
    0.3516   -2.3731   -0.3687 H   0  0  0  0  0  0  0  0  0  0  0  0
   -0.4455   -1.8559   -1.8515 H   0  0  0  0  0  0  0  0  0  0  0  0
    0.8529    0.3247   -1.8025 H   0  0  0  0  0  0  0  0  0  0  0  0
   -0.3366    0.0615   -0.4029 H   0  0  0  0  0  0  0  0  0  0  0  0
    1.9798   -0.8406    0.8223 H   0  0  0  0  0  0  0  0  0  0  0  0
   -3.3100   -2.0224    1.1728 H   0  0  0  0  0  0  0  0  0  0  0  0
   -3.9650   -1.5552   -0.4986 H   0  0  0  0  0  0  0  0  0  0  0  0
    3.2900    0.6578    1.8659 H   0  0  0  0  0  0  0  0  0  0  0  0
    3.6338    2.1430    1.1576 H   0  0  0  0  0  0  0  0  0  0  0  0
  1  2  1  0
  1 21  1  0
  1 22  1  0
  2  7  2  3
  3  5  1  0
  3 13  1  0
  3 14  1  0
  3 15  1  0
  4  6  1  0
  4 10  1  0
  4 11  1  0
  4 12  1  0
  5  7  1  0
  5 16  1  0
  5 17  1  0
  6  9  2  0
  7 18  1  0
  8  9  2  0
  8 19  1  0
  8 20  1  0
M  RAD  1   6   2
M  END
>  <reaction>  (3) 
rmg_rxn_13981

>  <type>  (3) 
ts

>  <mol_properties>  (3) 
{"4": {"label": "*1", "atom_type": "Cs"}, "5": {"label": "*3", "atom_type": "Cd"}, "6": {"label": "*0", "atom_type": "Cd"}, "8": {"label": "*4", "atom_type": "Cdd"}, "16": {"label": "*2", "atom_type": "H0"}}

$$$$
