
     RDKit          3D

 10  9  0  0  0  0  0  0  0  0999 V2000
    0.5383    1.9380    0.3797 C   0  0  0  0  0  0  0  0  0  0  0  0
   -0.5667   -1.9090   -0.3751 C   0  0  0  0  0  0  0  0  0  0  0  0
    0.1934    0.5508    0.1094 C   0  0  0  0  0  0  0  0  0  0  0  0
   -0.0992   -0.5968   -0.1154 C   0  0  0  0  0  0  0  0  0  0  0  0
   -1.6500   -1.8159   -0.3904 H   0  0  0  0  0  0  0  0  0  0  0  0
    1.0705    2.3808   -0.4641 H   0  0  0  0  0  0  0  0  0  0  0  0
   -0.3629    2.5289    0.5595 H   0  0  0  0  0  0  0  0  0  0  0  0
    1.1752    2.0196    1.2623 H   0  0  0  0  0  0  0  0  0  0  0  0
   -0.3410   -2.3014   -1.3637 H   0  0  0  0  0  0  0  0  0  0  0  0
   -0.3951   -2.6342    0.4170 H   0  0  0  0  0  0  0  0  0  0  0  0
  1  3  1  0
  1  6  1  0
  1  7  1  0
  1  8  1  0
  2  4  1  0
  2  5  1  0
  2  9  1  0
  2 10  1  0
  3  4  3  0
M  END
>  <reaction>  (1) 
rmg_rxn_14153

>  <type>  (1) 
r1h

>  <mol_properties>  (1) 
{"1": {"label": "donator", "atom_type": "Cs"}, "4": {"label": "d_hydrogen", "atom_type": "H0"}}

>  <electro_map>  (1) 
{"4": {"R": null, "A": null, "D": null}, "1": {"R": 1.0874377528824548, "A": null, "D": null}, "3": {"R": 1.4170138924616946, "A": 104.59383775511145, "D": null}, "2": {"R": 1.2054596579821326, "A": 142.883794168312, "D": 180.0932507531528}, "0": {"R": 1.0, "A": 90.0, "D": 180.0}, "5": {"R": 1.454730387873921, "A": 90.0, "D": 180.0}, "6": {"R": 1.0915036157363787, "A": 111.07231788783007, "D": 245.11279989296904}, "7": {"R": 1.767580013379516, "A": 35.99086018216808, "D": 121.3695689211865}, "8": {"R": 1.7661353529905368, "A": 60.00155667172435, "D": 37.36118137562843}, "9": {"R": 5.278787433799568, "A": 77.75569597237707, "D": 285.7515190109698}}

$$$$

     RDKit          3D

 10  9  0  0  0  0  0  0  0  0999 V2000
    0.0760   -1.7723    0.1883 C   0  0  0  0  0  0  0  0  0  0  0  0
   -0.0978   -0.4157    0.6902 C   0  0  0  0  0  0  0  0  0  0  0  0
    0.0074    1.7252   -0.7990 C   0  0  0  0  0  0  0  0  0  0  0  0
   -0.0533    0.6636   -0.0546 C   0  0  0  0  0  0  0  0  0  0  0  0
   -0.1221   -1.9083   -0.8715 H   0  0  0  0  0  0  0  0  0  0  0  0
   -0.3492   -2.5572    0.8080 H   0  0  0  0  0  0  0  0  0  0  0  0
    1.1438   -1.9680    0.2388 H   0  0  0  0  0  0  0  0  0  0  0  0
   -0.1937   -0.2790    1.7636 H   0  0  0  0  0  0  0  0  0  0  0  0
   -0.8844    2.1747   -1.2225 H   0  0  0  0  0  0  0  0  0  0  0  0
    0.9606    2.1930   -1.0243 H   0  0  0  0  0  0  0  0  0  0  0  0
  1  2  1  0
  1  5  1  0
  1  6  1  0
  1  7  1  0
  2  4  2  0
  2  8  1  0
  3  4  2  0
  3  9  1  0
  3 10  1  0
M  END
>  <reaction>  (2) 
rmg_rxn_14153

>  <type>  (2) 
r2h

>  <mol_properties>  (2) 
{"0": {"label": "acceptor", "atom_type": "Cs"}, "6": {"label": "a_hydrogen", "atom_type": "H0"}}

>  <electro_map>  (2) 
{"6": {"R": null, "A": null, "D": null}, "0": {"R": 1.0866913408762344, "A": null, "D": null}, "1": {"R": 1.4568521425343441, "A": 105.60153874184536, "D": null}, "3": {"R": 1.3121306944304987, "A": 118.68752032401702, "D": 249.95458360223446}, "2": {"R": 1.0, "A": 90.0, "D": 180.0}, "4": {"R": 1.2979627895987556, "A": 90.0, "D": 180.0}, "5": {"R": 3.6364936144313926, "A": 35.93959326888341, "D": 10.185549336336072}, "7": {"R": 1.8147199781483028, "A": 110.07828055714542, "D": 5.163733817368256}, "8": {"R": 2.4753501644382503, "A": 91.16280166702109, "D": 355.7688187364684}, "9": {"R": 3.926164811408555, "A": 105.69622454365079, "D": 18.862763213860447}}

$$$$

     RDKit          3D

 19 17  0  0  0  0  0  0  0  0999 V2000
   -1.6008   -1.6559   -0.1245 C   0  0  0  0  0  0  0  0  0  0  0  0
    2.1847    1.8323    0.7119 C   0  0  0  0  0  0  0  0  0  0  0  0
   -1.7746   -0.2993    0.3774 C   0  0  0  0  0  0  0  0  0  0  0  0
   -1.6695    1.8416   -1.1118 C   0  0  0  0  0  0  0  0  0  0  0  0
    1.0798   -2.0147   -0.0429 C   0  0  0  0  0  0  0  0  0  0  0  0
   -1.7301    0.7800   -0.3674 C   0  0  0  0  0  0  0  0  0  0  0  0
    1.8398    0.4452    0.4416 C   0  0  0  0  0  3  0  0  0  0  0  0
    1.5473   -0.7024    0.2168 C   0  0  0  0  0  0  0  0  0  0  0  0
   -1.7989   -1.7919   -1.1842 H   0  0  0  0  0  0  0  0  0  0  0  0
   -2.0260   -2.4408    0.4952 H   0  0  0  0  0  0  0  0  0  0  0  0
   -0.2829   -1.8975   -0.0622 H   0  0  0  0  0  0  0  0  0  0  0  0
    2.7169    2.2752   -0.1319 H   0  0  0  0  0  0  0  0  0  0  0  0
    1.2835    2.4232    0.8917 H   0  0  0  0  0  0  0  0  0  0  0  0
    2.8217    1.9140    1.5945 H   0  0  0  0  0  0  0  0  0  0  0  0
   -1.8705   -0.1626    1.4508 H   0  0  0  0  0  0  0  0  0  0  0  0
   -2.5613    2.2911   -1.5353 H   0  0  0  0  0  0  0  0  0  0  0  0
   -0.7162    2.3094   -1.3371 H   0  0  0  0  0  0  0  0  0  0  0  0
    1.3055   -2.4070   -1.0315 H   0  0  0  0  0  0  0  0  0  0  0  0
    1.2513   -2.7398    0.7492 H   0  0  0  0  0  0  0  0  0  0  0  0
  1  3  1  0
  1  9  1  0
  1 10  1  0
  1 11  1  0
  2  7  1  0
  2 12  1  0
  2 13  1  0
  2 14  1  0
  3  6  2  0
  3 15  1  0
  4  6  2  0
  4 16  1  0
  4 17  1  0
  5  8  2  0
  5 18  1  0
  5 19  1  0
  7  8  2  0
M  RAD  1   7   2
M  END
>  <reaction>  (3) 
rmg_rxn_14153

>  <type>  (3) 
ts

>  <mol_properties>  (3) 
{"0": {"label": "*1", "atom_type": "Cs"}, "2": {"label": "*0", "atom_type": "Cd"}, "4": {"label": "*3", "atom_type": "Cd"}, "7": {"label": "*4", "atom_type": "Cdd"}, "10": {"label": "*2", "atom_type": "H0"}}

$$$$
