
     RDKit          3D

 10  9  0  0  0  0  0  0  0  0999 V2000
    1.2855   -1.2154   -0.6486 C   0  0  0  0  0  0  0  0  0  0  0  0
    0.3069   -0.6050   -0.0984 C   0  0  0  0  0  0  0  0  0  0  0  0
   -0.6090    0.0955    0.5324 C   0  0  0  0  0  0  0  0  0  0  0  0
   -0.9414    1.5212    0.2070 C   0  0  0  0  0  0  0  0  0  0  0  0
    2.2525   -1.0540   -0.1957 H   0  0  0  0  0  0  0  0  0  0  0  0
    1.3119   -1.8392   -1.5297 H   0  0  0  0  0  0  0  0  0  0  0  0
   -1.1689   -0.3863    1.3288 H   0  0  0  0  0  0  0  0  0  0  0  0
   -0.2888    1.9050   -0.5752 H   0  0  0  0  0  0  0  0  0  0  0  0
   -0.8244    2.1523    1.0916 H   0  0  0  0  0  0  0  0  0  0  0  0
   -1.9794    1.6150   -0.1226 H   0  0  0  0  0  0  0  0  0  0  0  0
  1  2  2  0
  1  5  1  0
  1  6  1  0
  2  3  2  0
  3  4  1  0
  3  7  1  0
  4  8  1  0
  4  9  1  0
  4 10  1  0
M  END
>  <reaction>  (1) 
rmg_rxn_13990

>  <type>  (1) 
r1h

>  <mol_properties>  (1) 
{"0": {"label": "donator", "atom_type": "Cd"}, "4": {"label": "d_hydrogen", "atom_type": "H0"}}

>  <electro_map>  (1) 
{"4": {"R": null, "A": null, "D": null}, "0": {"R": 1.079916916141579, "A": null, "D": null}, "1": {"R": 1.2778837596552406, "A": 115.7094982309622, "D": null}, "2": {"R": 1.3142937709579179, "A": 145.21623701498544, "D": 182.41327944479298}, "3": {"R": 1.4996753977187693, "A": 123.8462986206332, "D": 73.61380917022923}, "5": {"R": 4.402880090165858, "A": 41.11272967618619, "D": 12.54806980642106}, "6": {"R": 4.054098509123784, "A": 30.140913826268456, "D": 6.244731161085763}, "7": {"R": 3.106411235470117, "A": 70.05025821824113, "D": 356.75682492637463}, "8": {"R": 1.7682071809895339, "A": 55.91432957966044, "D": 204.40001020464896}, "9": {"R": 1.7598488096841665, "A": 60.37470424858116, "D": 291.6230513042501}}

$$$$

     RDKit          3D

 14 14  0  0  0  0  0  0  0  0999 V2000
   -1.1798   -1.5516    0.0812 H   0  0  0  0  0  0  0  0  0  0  0  0
   -0.2566   -1.2810    0.5906 C   0  0  0  0  0  0  0  0  0  0  0  0
    0.7921   -1.0973   -0.4721 C   0  0  0  0  0  0  0  0  0  0  0  0
    0.5211    0.0414   -1.2633 O   0  0  0  0  0  0  0  0  0  0  0  0
    0.3278    1.1741   -0.4719 C   0  0  0  0  0  0  0  0  0  0  0  0
   -0.7734    1.0616    0.3753 O   0  0  0  0  0  0  0  0  0  0  0  0
   -0.6180   -0.0015    1.2944 C   0  0  0  0  0  0  0  0  0  0  0  0
   -0.0805   -2.1237    1.2569 H   0  0  0  0  0  0  0  0  0  0  0  0
    1.7867   -0.9900   -0.0043 H   0  0  0  0  0  0  0  0  0  0  0  0
    0.8361   -1.9507   -1.1491 H   0  0  0  0  0  0  0  0  0  0  0  0
    0.1341    2.0072   -1.1435 H   0  0  0  0  0  0  0  0  0  0  0  0
    1.2380    1.3653    0.1261 H   0  0  0  0  0  0  0  0  0  0  0  0
   -1.5665   -0.0968    1.8249 H   0  0  0  0  0  0  0  0  0  0  0  0
    0.1600    0.2605    2.0323 H   0  0  0  0  0  0  0  0  0  0  0  0
  1  2  1  0
  2  3  1  0
  2  7  1  0
  2  8  1  0
  3  4  1  0
  3  9  1  0
  3 10  1  0
  4  5  1  0
  5  6  1  0
  5 11  1  0
  5 12  1  0
  6  7  1  0
  7 13  1  0
  7 14  1  0
M  END
>  <reaction>  (2) 
rmg_rxn_13990

>  <type>  (2) 
r2h

>  <mol_properties>  (2) 
{"0": {"label": "a_hydrogen", "atom_type": "H0"}, "1": {"label": "acceptor", "atom_type": "Cs"}}

>  <electro_map>  (2) 
{"0": {"R": null, "A": null, "D": null}, "1": {"R": 1.0885980521508978, "A": null, "D": null}, "2": {"R": 1.504289058168716, "A": 106.91580716888478, "D": null}, "3": {"R": 1.4128543476808288, "A": 98.16185175184535, "D": 241.14977500418632}, "4": {"R": 1.3951991429262853, "A": 111.29391507101667, "D": 52.50433412403596}, "5": {"R": 1.3939060979081273, "A": 112.87592702960688, "D": 297.39615570174607}, "6": {"R": 1.4139038755692235, "A": 111.64693185523197, "D": 62.134284727309485}, "7": {"R": 2.189564738631727, "A": 138.12678108725595, "D": 310.2510539194409}, "8": {"R": 2.5223828642219845, "A": 75.79779333864987, "D": 51.9392420162059}, "9": {"R": 1.7712847040904933, "A": 71.45950300915366, "D": 249.15779938183877}, "10": {"R": 4.019727933796411, "A": 63.81660808246499, "D": 101.68416154988954}, "11": {"R": 1.80072895230628, "A": 62.80272447455777, "D": 353.5075443556516}, "12": {"R": 3.5901099304539605, "A": 89.9967157767148, "D": 287.2642328565379}, "13": {"R": 1.7752132851774414, "A": 38.146775127916214, "D": 190.79471831972904}}

$$$$

     RDKit          3D

 23 22  0  0  0  0  0  0  0  0999 V2000
   -1.0182   -1.5906   -0.7173 C   0  0  0  0  0  0  0  0  0  0  0  0
   -1.9968   -0.9802   -0.1671 C   0  0  0  0  0  0  0  0  0  0  0  0
   -2.9127   -0.2798    0.4637 C   0  0  0  0  0  0  0  0  0  0  0  0
   -3.2452    1.1459    0.1383 C   0  0  0  0  0  0  0  0  0  0  0  0
    0.1446   -1.3966   -0.1728 H   0  0  0  0  0  0  0  0  0  0  0  0
   -0.9919   -2.2144   -1.5985 H   0  0  0  0  0  0  0  0  0  0  0  0
   -3.4726   -0.7616    1.2600 H   0  0  0  0  0  0  0  0  0  0  0  0
   -2.5925    1.5297   -0.6440 H   0  0  0  0  0  0  0  0  0  0  0  0
   -3.1282    1.7771    1.0229 H   0  0  0  0  0  0  0  0  0  0  0  0
   -4.2831    1.2397   -0.1914 H   0  0  0  0  0  0  0  0  0  0  0  0
    1.3116   -1.0545    0.4713 C   0  0  0  0  0  3  0  0  0  0  0  0
    2.3604   -0.8708   -0.5914 C   0  0  0  0  0  0  0  0  0  0  0  0
    2.0894    0.2679   -1.3827 O   0  0  0  0  0  0  0  0  0  0  0  0
    1.8961    1.4005   -0.5912 C   0  0  0  0  0  0  0  0  0  0  0  0
    0.7948    1.2881    0.2559 O   0  0  0  0  0  0  0  0  0  0  0  0
    0.9502    0.2250    1.1750 C   0  0  0  0  0  0  0  0  0  0  0  0
    1.4878   -1.8972    1.1375 H   0  0  0  0  0  0  0  0  0  0  0  0
    3.3550   -0.7635   -0.1236 H   0  0  0  0  0  0  0  0  0  0  0  0
    2.4043   -1.7242   -1.2684 H   0  0  0  0  0  0  0  0  0  0  0  0
    1.7024    2.2337   -1.2629 H   0  0  0  0  0  0  0  0  0  0  0  0
    2.8063    1.5918    0.0068 H   0  0  0  0  0  0  0  0  0  0  0  0
    0.0018    0.1297    1.7056 H   0  0  0  0  0  0  0  0  0  0  0  0
    1.7282    0.4870    1.9129 H   0  0  0  0  0  0  0  0  0  0  0  0
  1  2  2  0
  1  5  1  0
  1  6  1  0
  2  3  2  0
  3  4  1  0
  3  7  1  0
  4  8  1  0
  4  9  1  0
  4 10  1  0
 11 12  1  0
 11 16  1  0
 11 17  1  0
 12 13  1  0
 12 18  1  0
 12 19  1  0
 13 14  1  0
 14 15  1  0
 14 20  1  0
 14 21  1  0
 15 16  1  0
 16 22  1  0
 16 23  1  0
M  RAD  1  11   2
M  END
>  <reaction>  (3) 
rmg_rxn_13990

>  <type>  (3) 
ts

>  <mol_properties>  (3) 
{"0": {"label": "*1", "atom_type": "Cd"}, "1": {"label": "*0", "atom_type": "Cdd"}, "4": {"label": "*2", "atom_type": "H0"}, "10": {"label": "*3", "atom_type": "Cs"}, "11": {"label": "*4", "atom_type": "Cs"}}

$$$$
