
     RDKit          3D

 10  9  0  0  0  0  0  0  0  0999 V2000
   -1.2430    1.3856    0.3058 C   0  0  0  0  0  0  0  0  0  0  0  0
   -0.2929    0.6161   -0.0589 C   0  0  0  0  0  0  0  0  0  0  0  0
    0.5923   -0.2577   -0.4916 C   0  0  0  0  0  0  0  0  0  0  0  0
    0.9087   -1.5488    0.2033 C   0  0  0  0  0  0  0  0  0  0  0  0
   -2.2179    1.1794   -0.1098 H   0  0  0  0  0  0  0  0  0  0  0  0
   -1.2493    2.2353    0.9720 H   0  0  0  0  0  0  0  0  0  0  0  0
    1.1441   -0.0245   -1.3974 H   0  0  0  0  0  0  0  0  0  0  0  0
    0.3010   -1.6736    1.0991 H   0  0  0  0  0  0  0  0  0  0  0  0
    1.9613   -1.5885    0.4951 H   0  0  0  0  0  0  0  0  0  0  0  0
    0.7269   -2.4002   -0.4584 H   0  0  0  0  0  0  0  0  0  0  0  0
  1  2  2  0
  1  5  1  0
  1  6  1  0
  2  3  2  0
  3  4  1  0
  3  7  1  0
  4  8  1  0
  4  9  1  0
  4 10  1  0
M  END
>  <reaction>  (1) 
rmg_rxn_13991

>  <type>  (1) 
r1h

>  <mol_properties>  (1) 
{"0": {"label": "donator", "atom_type": "Cd"}, "4": {"label": "d_hydrogen", "atom_type": "H0"}}

>  <electro_map>  (1) 
{"4": {"R": null, "A": null, "D": null}, "0": {"R": 1.079688776349474, "A": null, "D": null}, "1": {"R": 1.2759128687207444, "A": 116.55953052730467, "D": null}, "2": {"R": 1.3169384794500885, "A": 145.37023160160098, "D": 178.13971128450083}, "3": {"R": 1.5000468882543871, "A": 124.10161733445904, "D": 279.36701855643577}, "5": {"R": 4.423497417964464, "A": 40.64893788460712, "D": 347.8029717911816}, "6": {"R": 4.055753064390326, "A": 29.995296489536777, "D": 353.6746991257332}, "7": {"R": 3.108412397127388, "A": 70.50909022942562, "D": 2.305165725402609}, "8": {"R": 1.7687223829937324, "A": 56.33574820778169, "D": 226.34146356613846}, "9": {"R": 1.7583222730870287, "A": 60.2638262113042, "D": 292.3817002755449}}

$$$$

     RDKit          3D

 14 14  0  0  0  0  0  0  0  0999 V2000
    1.1756    1.5523   -0.0990 H   0  0  0  0  0  0  0  0  0  0  0  0
    0.2197    1.2806   -0.5417 C   0  0  0  0  0  0  0  0  0  0  0  0
    0.5180    0.0484   -1.3642 C   0  0  0  0  0  0  0  0  0  0  0  0
    0.7231   -1.1433   -0.4401 C   0  0  0  0  0  0  0  0  0  0  0  0
   -0.3414   -1.2191    0.4940 O   0  0  0  0  0  0  0  0  0  0  0  0
   -0.4189   -0.0580    1.2501 C   0  0  0  0  0  0  0  0  0  0  0  0
   -0.6986    1.0824    0.4716 O   0  0  0  0  0  0  0  0  0  0  0  0
   -0.0647    2.1641   -1.1094 H   0  0  0  0  0  0  0  0  0  0  0  0
   -0.3211   -0.1532   -2.0376 H   0  0  0  0  0  0  0  0  0  0  0  0
    1.4094    0.2178   -1.9717 H   0  0  0  0  0  0  0  0  0  0  0  0
    0.7253   -2.0832   -0.9896 H   0  0  0  0  0  0  0  0  0  0  0  0
    1.6764   -1.0487    0.0954 H   0  0  0  0  0  0  0  0  0  0  0  0
   -1.2466   -0.1695    1.9462 H   0  0  0  0  0  0  0  0  0  0  0  0
    0.5279    0.1085    1.7884 H   0  0  0  0  0  0  0  0  0  0  0  0
  1  2  1  0
  2  3  1  0
  2  7  1  0
  2  8  1  0
  3  4  1  0
  3  9  1  0
  3 10  1  0
  4  5  1  0
  4 11  1  0
  4 12  1  0
  5  6  1  0
  6  7  1  0
  6 13  1  0
  6 14  1  0
M  END
>  <reaction>  (2) 
rmg_rxn_13991

>  <type>  (2) 
r2h

>  <mol_properties>  (2) 
{"0": {"label": "a_hydrogen", "atom_type": "H0"}, "1": {"label": "acceptor", "atom_type": "Cs"}}

>  <electro_map>  (2) 
{"0": {"R": null, "A": null, "D": null}, "1": {"R": 1.0879660123116497, "A": null, "D": null}, "6": {"R": 1.3817685599463556, "A": 108.7382268212589, "D": null}, "5": {"R": 1.4088405906977406, "A": 99.24453533499967, "D": 119.8620684242489}, "4": {"R": 1.387707854502172, "A": 112.78903110718839, "D": 303.40677408551556}, "3": {"R": 1.4182486770115355, "A": 110.85751842650812, "D": 62.63122488424738}, "2": {"R": 1.5219320047656948, "A": 109.91034249455517, "D": 301.0431611709001}, "7": {"R": 2.2091771319110407, "A": 135.67666814430558, "D": 44.771171180792386}, "8": {"R": 2.50939482684634, "A": 25.83439513860995, "D": 238.4704866367464}, "9": {"R": 1.7710467789609121, "A": 72.1156756168755, "D": 322.53322068126647}, "10": {"R": 2.5936516432899626, "A": 64.56661821925283, "D": 131.924849446869}, "11": {"R": 1.775391229308375, "A": 64.73503318197658, "D": 233.57240888134785}, "12": {"R": 3.569571453627008, "A": 91.244370941286, "D": 102.97835482665897}, "13": {"R": 1.803063855382361, "A": 35.5826712956515, "D": 182.3766811755173}}

$$$$

     RDKit          3D

 23 22  0  0  0  0  0  0  0  0999 V2000
    1.1298    1.6990    0.4352 C   0  0  0  0  0  0  0  0  0  0  0  0
    2.0800    0.9295    0.0704 C   0  0  0  0  0  0  0  0  0  0  0  0
    2.9652    0.0557   -0.3623 C   0  0  0  0  0  3  0  0  0  0  0  0
    3.2816   -1.2354    0.3326 C   0  0  0  0  0  0  0  0  0  0  0  0
   -0.0970    1.4395   -0.0879 H   0  0  0  0  0  0  0  0  0  0  0  0
    1.1235    2.5487    1.1013 H   0  0  0  0  0  0  0  0  0  0  0  0
    3.5169    0.2889   -1.2681 H   0  0  0  0  0  0  0  0  0  0  0  0
    2.6739   -1.3602    1.2284 H   0  0  0  0  0  0  0  0  0  0  0  0
    4.3341   -1.2751    0.6245 H   0  0  0  0  0  0  0  0  0  0  0  0
    3.0997   -2.0868   -0.3291 H   0  0  0  0  0  0  0  0  0  0  0  0
   -1.2714    1.1056   -0.6319 C   0  0  0  0  0  0  0  0  0  0  0  0
   -0.9731   -0.1266   -1.4543 C   0  0  0  0  0  0  0  0  0  0  0  0
   -0.7679   -1.3183   -0.5302 C   0  0  0  0  0  0  0  0  0  0  0  0
   -1.8324   -1.3940    0.4038 O   0  0  0  0  0  0  0  0  0  0  0  0
   -1.9099   -0.2330    1.1599 C   0  0  0  0  0  0  0  0  0  0  0  0
   -2.1896    0.9075    0.3815 O   0  0  0  0  0  0  0  0  0  0  0  0
   -1.5557    1.9891   -1.1996 H   0  0  0  0  0  0  0  0  0  0  0  0
   -1.8121   -0.3281   -2.1278 H   0  0  0  0  0  0  0  0  0  0  0  0
   -0.0817    0.0429   -2.0619 H   0  0  0  0  0  0  0  0  0  0  0  0
   -0.7657   -2.2581   -1.0798 H   0  0  0  0  0  0  0  0  0  0  0  0
    0.1854   -1.2236    0.0053 H   0  0  0  0  0  0  0  0  0  0  0  0
   -2.7376   -0.3445    1.8560 H   0  0  0  0  0  0  0  0  0  0  0  0
   -0.9631   -0.0664    1.6982 H   0  0  0  0  0  0  0  0  0  0  0  0
  1  2  3  0
  1  6  1  0
  2  3  1  0
  3  4  1  0
  3  7  1  0
  4  8  1  0
  4  9  1  0
  4 10  1  0
  5 11  1  0
 11 12  1  0
 11 16  1  0
 11 17  1  0
 12 13  1  0
 12 18  1  0
 12 19  1  0
 13 14  1  0
 13 20  1  0
 13 21  1  0
 14 15  1  0
 15 16  1  0
 15 22  1  0
 15 23  1  0
M  RAD  1   3   2
M  END
>  <reaction>  (3) 
rmg_rxn_13991

>  <type>  (3) 
ts

>  <mol_properties>  (3) 
{"0": {"label": "*3", "atom_type": "Ct"}, "1": {"label": "*4", "atom_type": "Ct"}, "4": {"label": "*2", "atom_type": "H0"}, "10": {"label": "*1", "atom_type": "Cs"}, "15": {"label": "*0", "atom_type": "O2s"}}

$$$$
