
     RDKit          3D

  4  3  0  0  0  0  0  0  0  0999 V2000
   -0.3043    0.3522   -0.9656 O   0  0  0  0  0  0  0  0  0  0  0  0
    0.4006   -0.2279   -0.0733 N   0  0  0  0  0  0  0  0  0  0  0  0
    0.0368   -0.2049    1.0579 O   0  0  0  0  0  0  0  0  0  0  0  0
   -1.0932    0.7216   -0.5620 H   0  0  0  0  0  0  0  0  0  0  0  0
  1  2  1  0
  1  4  1  0
  2  3  2  0
M  END
>  <reaction>  (1) 
rmg_rxn_14003

>  <type>  (1) 
r1h

>  <mol_properties>  (1) 
{"0": {"label": "donator", "atom_type": "O2s"}, "3": {"label": "d_hydrogen", "atom_type": "H0"}}

>  <electro_map>  (1) 
{"3": {"R": null, "A": null, "D": null}, "0": {"R": 0.9599999607106042, "A": null, "D": null}, "1": {"R": 1.276644640816375, "A": 109.55156623124213, "D": null}, "2": {"R": 1.1884602127893986, "A": 89.67227905642325, "D": 178.3024188879352}}

$$$$

     RDKit          3D

 10  9  0  0  0  0  0  0  0  0999 V2000
    2.3831    0.6937   -0.1310 H   0  0  0  0  0  0  0  0  0  0  0  0
    1.4951    1.0999    0.3263 C   0  0  0  0  0  0  0  0  0  0  0  0
    0.4288    0.5336   -0.0497 C   0  0  0  0  0  0  0  0  0  0  0  0
   -0.6202   -0.1376   -0.5017 C   0  0  0  0  0  0  0  0  0  0  0  0
   -1.2255   -1.3145    0.1906 C   0  0  0  0  0  0  0  0  0  0  0  0
    1.7335    1.9048    1.0030 H   0  0  0  0  0  0  0  0  0  0  0  0
   -1.0783    0.1973   -1.4276 H   0  0  0  0  0  0  0  0  0  0  0  0
   -2.2700   -1.1139    0.4425 H   0  0  0  0  0  0  0  0  0  0  0  0
   -0.6849   -1.5637    1.1016 H   0  0  0  0  0  0  0  0  0  0  0  0
   -1.2191   -2.1838   -0.4723 H   0  0  0  0  0  0  0  0  0  0  0  0
  1  2  1  0
  2  3  2  0
  2  6  1  0
  3  4  2  0
  4  5  1  0
  4  7  1  0
  5  8  1  0
  5  9  1  0
  5 10  1  0
M  END
>  <reaction>  (2) 
rmg_rxn_14003

>  <type>  (2) 
r2h

>  <mol_properties>  (2) 
{"0": {"label": "a_hydrogen", "atom_type": "H0"}, "1": {"label": "acceptor", "atom_type": "Cd"}}

>  <electro_map>  (2) 
{"0": {"R": null, "A": null, "D": null}, "1": {"R": 1.0782828837350416, "A": null, "D": null}, "2": {"R": 1.2645707625759863, "A": 113.5549676865838, "D": null}, "3": {"R": 1.324823562102941, "A": 144.6496330113671, "D": 181.0065442981682}, "4": {"R": 1.4935888929754004, "A": 124.18981163408574, "D": 87.77824979948863}, "5": {"R": 4.4475034332691, "A": 40.94439156324793, "D": 11.392765537878383}, "6": {"R": 4.090252262907357, "A": 29.759645537473165, "D": 5.780506732992769}, "7": {"R": 2.5762344364323604, "A": 95.6865748305155, "D": 22.120231256190806}, "8": {"R": 1.774589735624013, "A": 89.16404805086327, "D": 316.9832732865832}, "9": {"R": 1.7739810194744037, "A": 59.34624124037752, "D": 292.86945014094266}}

$$$$

     RDKit          3D

 13 11  0  0  0  0  0  0  0  0999 V2000
    1.8939    0.3475   -0.7691 O   0  0  0  0  0  0  0  0  0  0  0  0
    2.5989   -0.2326    0.1232 N   0  0  0  0  0  0  0  0  0  0  0  0
    2.2351   -0.2097    1.2544 O   0  0  0  0  0  0  0  0  0  0  0  0
    0.8771    0.8236   -0.2487 H   0  0  0  0  0  0  0  0  0  0  0  0
   -0.2164    1.3237    0.3144 C   0  0  0  0  0  0  0  0  0  0  0  0
   -1.2827    0.7574   -0.0616 C   0  0  0  0  0  0  0  0  0  0  0  0
   -2.3316    0.0862   -0.5137 C   0  0  0  0  0  3  0  0  0  0  0  0
   -2.9370   -1.0906    0.1787 C   0  0  0  0  0  0  0  0  0  0  0  0
    0.0221    2.1287    0.9911 H   0  0  0  0  0  0  0  0  0  0  0  0
   -2.7898    0.4212   -1.4396 H   0  0  0  0  0  0  0  0  0  0  0  0
   -3.9815   -0.8900    0.4306 H   0  0  0  0  0  0  0  0  0  0  0  0
   -2.3964   -1.3398    1.0896 H   0  0  0  0  0  0  0  0  0  0  0  0
   -2.9306   -1.9599   -0.4843 H   0  0  0  0  0  0  0  0  0  0  0  0
  1  2  1  0
  1  4  1  0
  2  3  2  0
  5  6  3  0
  5  9  1  0
  6  7  1  0
  7  8  1  0
  7 10  1  0
  8 11  1  0
  8 12  1  0
  8 13  1  0
M  RAD  1   7   2
M  END
>  <reaction>  (3) 
rmg_rxn_14003

>  <type>  (3) 
ts

>  <mol_properties>  (3) 
{"0": {"label": "*1", "atom_type": "O2s"}, "1": {"label": "*0", "atom_type": "N3d"}, "3": {"label": "*2", "atom_type": "H0"}, "4": {"label": "*3", "atom_type": "Ct"}, "5": {"label": "*4", "atom_type": "Ct"}}

$$$$
