
     RDKit          3D

  6  5  0  0  0  0  0  0  0  0999 V2000
   -0.6063   -0.3145   -0.1492 N   0  0  0  0  0  0  0  0  0  0  0  0
    0.6106    0.2829    0.2043 N   0  0  0  0  0  0  0  0  0  0  0  0
   -0.5838   -1.2930    0.0952 H   0  0  0  0  0  0  0  0  0  0  0  0
   -0.8566   -0.2007   -1.1201 H   0  0  0  0  0  0  0  0  0  0  0  0
    0.3941    1.0873    0.7880 H   0  0  0  0  0  0  0  0  0  0  0  0
    1.0185    0.7252   -0.6158 H   0  0  0  0  0  0  0  0  0  0  0  0
  1  2  1  0
  1  3  1  0
  1  4  1  0
  2  5  1  0
  2  6  1  0
M  END
>  <reaction>  (1) 
rxn_124

>  <type>  (1) 
r1h

>  <mol_properties>  (1) 
{"1": {"label": "donator", "atom_type": "N3s"}, "4": {"label": "d_hydrogen", "atom_type": "H0"}}

>  <electro_map>  (1) 
{"4": {"R": null, "A": null, "D": null}, "1": {"R": 1.0171604580661342, "A": null, "D": null}, "0": {"R": 1.4010101607891574, "A": 107.28572342663313, "D": null}, "2": {"R": 1.0088241585814754, "A": 124.49315378741294, "D": 67.1065065260942}, "3": {"R": 1.6565727783068482, "A": 34.82276397254128, "D": 233.47412225586788}, "5": {"R": 2.151202167375976, "A": 88.18491286657452, "D": 49.94349770979429}}

$$$$

     RDKit          3D

  5  4  0  0  0  0  0  0  0  0999 V2000
    0.3407   -0.8727   -0.4545 H   0  0  0  0  0  0  0  0  0  0  0  0
   -0.0122    0.0387    0.0175 C   0  0  0  0  0  0  0  0  0  0  0  0
    0.4754    0.0095    0.9868 H   0  0  0  0  0  0  0  0  0  0  0  0
   -1.0797   -0.1567    0.0338 H   0  0  0  0  0  0  0  0  0  0  0  0
    0.2905    0.8663   -0.6160 H   0  0  0  0  0  0  0  0  0  0  0  0
  1  2  1  0
  2  3  1  0
  2  4  1  0
  2  5  1  0
M  END
>  <reaction>  (2) 
rxn_124

>  <type>  (2) 
r2h

>  <mol_properties>  (2) 
{"0": {"label": "a_hydrogen", "atom_type": "H0"}, "1": {"label": "acceptor", "atom_type": "Cs"}}

>  <electro_map>  (2) 
{"0": {"R": null, "A": null, "D": null}, "1": {"R": 1.0853580602607704, "A": null, "D": null}, "2": {"R": 1.0853580602607704, "A": 102.69534804267948, "D": null}, "3": {"R": 1.8313950204549716, "A": 56.14521137753848, "D": 38.01728329352569}, "4": {"R": 1.8292400513384055, "A": 59.87218102484518, "D": 334.5412370061803}}

$$$$

     RDKit          3D

 10  8  0  0  0  0  0  0  0  0999 V2000
   -0.4138   -1.1705   -0.5527 N   0  0  0  0  0  0  0  0  0  0  0  0
    0.8031   -0.5731   -0.1991 N   0  0  0  0  0  0  0  0  0  0  0  0
   -0.3914   -2.1490   -0.3083 H   0  0  0  0  0  0  0  0  0  0  0  0
   -0.6641   -1.0568   -1.5235 H   0  0  0  0  0  0  0  0  0  0  0  0
    0.5545    0.3506    0.4711 H   0  0  0  0  0  0  0  0  0  0  0  0
    1.2110   -0.1308   -1.0193 H   0  0  0  0  0  0  0  0  0  0  0  0
    0.0828    1.5687    1.1020 C   0  0  0  0  0  3  0  0  0  0  0  0
    0.5704    1.5396    2.0712 H   0  0  0  0  0  0  0  0  0  0  0  0
   -0.9846    1.3734    1.1182 H   0  0  0  0  0  0  0  0  0  0  0  0
    0.3856    2.3963    0.4684 H   0  0  0  0  0  0  0  0  0  0  0  0
  1  2  1  0
  1  3  1  0
  1  4  1  0
  2  5  1  0
  2  6  1  0
  7  8  1  0
  7  9  1  0
  7 10  1  0
M  RAD  1   7   2
M  END
>  <reaction>  (3) 
rxn_124

>  <type>  (3) 
ts

>  <mol_properties>  (3) 
{"0": {"label": "*0", "atom_type": "N3s"}, "1": {"label": "*1", "atom_type": "N3s"}, "4": {"label": "*2", "atom_type": "H0"}, "6": {"label": "*3", "atom_type": "Cs"}, "7": {"label": "*4", "atom_type": "H0"}}

$$$$
