
     RDKit          3D

  5  4  0  0  0  0  0  0  0  0999 V2000
    0.0000   -0.0255   -0.0105 C   0  0  0  0  0  0  0  0  0  0  0  0
    0.0000    0.9741    0.4155 H   0  0  0  0  0  0  0  0  0  0  0  0
    0.9073   -0.4986    0.3546 H   0  0  0  0  0  0  0  0  0  0  0  0
   -0.9073   -0.4986    0.3546 H   0  0  0  0  0  0  0  0  0  0  0  0
    0.0000    0.1227   -1.0870 H   0  0  0  0  0  0  0  0  0  0  0  0
  1  2  1  0
  1  3  1  0
  1  4  1  0
  1  5  1  0
M  END
>  <reaction>  (1) 
rxn_842

>  <type>  (1) 
r1h

>  <mol_properties>  (1) 
{"0": {"label": "donator", "atom_type": "Cs"}, "1": {"label": "d_hydrogen", "atom_type": "H0"}}

>  <electro_map>  (1) 
{"1": {"R": null, "A": null, "D": null}, "0": {"R": 1.086497813594645, "A": null, "D": null}, "2": {"R": 1.086497813594645, "A": 105.59777675434358, "D": null}, "3": {"R": 1.8146729433669142, "A": 58.38425283850463, "D": 324.1943378853127}, "4": {"R": 1.8131327346799835, "A": 59.97190532423555, "D": 29.031045595913042}}

$$$$

     RDKit          3D

  6  5  0  0  0  0  0  0  0  0999 V2000
    0.0000   -0.4647    0.4565 C   0  0  0  0  0  0  0  0  0  0  0  0
    0.0000    0.4896   -0.4451 C   0  0  0  0  0  0  0  0  0  0  0  0
   -0.0000   -0.3560    1.5350 H   0  0  0  0  0  0  0  0  0  0  0  0
    0.0000    1.5415   -0.1706 H   0  0  0  0  0  0  0  0  0  0  0  0
    0.0000    0.2661   -1.5076 H   0  0  0  0  0  0  0  0  0  0  0  0
    0.0000   -1.4879    0.0988 H   0  0  0  0  0  0  0  0  0  0  0  0
  1  2  2  3
  1  3  1  0
  1  6  1  0
  2  4  1  0
  2  5  1  0
M  END
>  <reaction>  (2) 
rxn_842

>  <type>  (2) 
r2h

>  <mol_properties>  (2) 
{"0": {"label": "acceptor", "atom_type": "Cd"}, "5": {"label": "a_hydrogen", "atom_type": "H0"}}

>  <electro_map>  (2) 
{"5": {"R": null, "A": null, "D": null}, "0": {"R": 1.083974532349036, "A": null, "D": null}, "1": {"R": 1.312811678255292, "A": 117.3572709655842, "D": null}, "2": {"R": 2.1531067203803262, "A": 51.496891129574394, "D": 359.99996599879285}, "3": {"R": 2.5513574203611467, "A": 24.925814887600048, "D": 179.99994278442423}, "4": {"R": 1.8477864451436723, "A": 88.30191123296703, "D": 1.4158234202550823e-05}}

$$$$

     RDKit          3D

 10  8  0  0  0  0  0  0  0  0999 V2000
    0.0000    0.5768    0.6490 C   0  0  0  0  0  3  0  0  0  0  0  0
    0.0000    1.5310   -0.2526 C   0  0  0  0  0  0  0  0  0  0  0  0
   -0.0000    0.6855    1.7275 H   0  0  0  0  0  0  0  0  0  0  0  0
    0.0000    2.5830    0.0219 H   0  0  0  0  0  0  0  0  0  0  0  0
    0.0000    1.3076   -1.3151 H   0  0  0  0  0  0  0  0  0  0  0  0
    0.0000   -1.9099   -0.3124 C   0  0  0  0  0  0  0  0  0  0  0  0
    0.0000   -0.7069    0.2003 H   0  0  0  0  0  0  0  0  0  0  0  0
    0.9073   -2.3830    0.0527 H   0  0  0  0  0  0  0  0  0  0  0  0
   -0.9073   -2.3830    0.0527 H   0  0  0  0  0  0  0  0  0  0  0  0
    0.0000   -1.7617   -1.3889 H   0  0  0  0  0  0  0  0  0  0  0  0
  1  2  2  3
  1  3  1  0
  2  4  1  0
  2  5  1  0
  6  7  1  0
  6  8  1  0
  6  9  1  0
  6 10  1  0
M  RAD  1   1   2
M  END
>  <reaction>  (3) 
rxn_842

>  <type>  (3) 
ts

>  <mol_properties>  (3) 
{"0": {"label": "*3", "atom_type": "Cd"}, "1": {"label": "*4", "atom_type": "Cd"}, "5": {"label": "*1", "atom_type": "Cs"}, "6": {"label": "*2", "atom_type": "H0"}, "7": {"label": "*0", "atom_type": "H0"}}

$$$$
