
     RDKit          3D

  4  3  0  0  0  0  0  0  0  0999 V2000
   -0.0035    0.0126    0.5892 C   0  0  0  0  0  0  0  0  0  0  0  0
    0.0033   -0.0207   -0.5954 O   0  0  0  0  0  0  0  0  0  0  0  0
    0.0124    0.9746    1.1491 H   0  0  0  0  0  0  0  0  0  0  0  0
   -0.0259   -0.9033    1.2217 H   0  0  0  0  0  0  0  0  0  0  0  0
  1  2  2  0
  1  3  1  0
  1  4  1  0
M  END
>  <reaction>  (1) 
rxn_365

>  <type>  (1) 
r1h

>  <mol_properties>  (1) 
{"0": {"label": "donator", "atom_type": "CO"}, "2": {"label": "d_hydrogen", "atom_type": "H0"}}

>  <electro_map>  (1) 
{"2": {"R": null, "A": null, "D": null}, "0": {"R": 1.1132506249214233, "A": null, "D": null}, "1": {"R": 1.1850676974342589, "A": 121.7975188669403, "D": null}, "3": {"R": 2.0202971727065657, "A": 55.622503333863, "D": 0.00011895980888269007}}

$$$$

     RDKit          3D

  6  5  0  0  0  0  0  0  0  0999 V2000
    0.0056    0.0775   -0.6427 C   0  0  0  0  0  0  0  0  0  0  0  0
   -0.0050   -0.0409    0.6620 C   0  0  0  0  0  0  0  0  0  0  0  0
    0.0273    0.9661   -1.2618 H   0  0  0  0  0  0  0  0  0  0  0  0
    0.0084    0.8276    1.3182 H   0  0  0  0  0  0  0  0  0  0  0  0
   -0.0275   -1.0101    1.1523 H   0  0  0  0  0  0  0  0  0  0  0  0
   -0.0095   -0.8458   -1.2090 H   0  0  0  0  0  0  0  0  0  0  0  0
  1  2  2  3
  1  3  1  0
  1  6  1  0
  2  4  1  0
  2  5  1  0
M  END
>  <reaction>  (2) 
rxn_365

>  <type>  (2) 
r2h

>  <mol_properties>  (2) 
{"0": {"label": "acceptor", "atom_type": "Cd"}, "5": {"label": "a_hydrogen", "atom_type": "H0"}}

>  <electro_map>  (2) 
{"5": {"R": null, "A": null, "D": null}, "0": {"R": 1.0832147288810037, "A": null, "D": null}, "1": {"R": 1.3100337972722012, "A": 116.3241173818503, "D": null}, "2": {"R": 2.171622721338918, "A": 50.91489335582021, "D": 359.9997868658786}, "3": {"R": 2.583799832790407, "A": 24.560396923278407, "D": 180.0000526924305}, "4": {"R": 1.8455259530747028, "A": 87.92189191541357, "D": 1.1358719589327517e-05}}

$$$$

     RDKit          3D

  9  7  0  0  0  0  0  0  0  0999 V2000
    0.0191    1.2756    0.7350 C   0  0  0  0  0  3  0  0  0  0  0  0
    0.0086    1.1572    2.0396 C   0  0  0  0  0  0  0  0  0  0  0  0
    0.0409    2.1642    0.1158 H   0  0  0  0  0  0  0  0  0  0  0  0
    0.0220    2.0257    2.6958 H   0  0  0  0  0  0  0  0  0  0  0  0
   -0.0140    0.1880    2.5299 H   0  0  0  0  0  0  0  0  0  0  0  0
   -0.0196   -1.0914   -0.6832 C   0  0  0  0  0  0  0  0  0  0  0  0
   -0.0129   -1.1246   -1.8678 O   0  0  0  0  0  0  0  0  0  0  0  0
   -0.0020   -0.0216   -0.0606 H   0  0  0  0  0  0  0  0  0  0  0  0
   -0.0421   -2.0072   -0.0507 H   0  0  0  0  0  0  0  0  0  0  0  0
  1  2  2  3
  1  3  1  0
  2  4  1  0
  2  5  1  0
  6  7  2  0
  6  8  1  0
  6  9  1  0
M  RAD  1   1   2
M  END
>  <reaction>  (3) 
rxn_365

>  <type>  (3) 
ts

>  <mol_properties>  (3) 
{"0": {"label": "*3", "atom_type": "Cd"}, "1": {"label": "*4", "atom_type": "Cd"}, "5": {"label": "*1", "atom_type": "CO"}, "6": {"label": "*0", "atom_type": "O2d"}, "7": {"label": "*2", "atom_type": "H0"}}

$$$$
