
     RDKit          3D

 10  9  0  0  0  0  0  0  0  0999 V2000
    0.2218   -1.5204   -1.2303 C   0  0  0  0  0  0  0  0  0  0  0  0
    0.5438   -1.2712    0.2231 C   0  0  0  0  0  0  0  0  0  0  0  0
    0.3735    0.0686    0.7723 C   0  0  0  0  0  0  0  0  0  0  0  0
   -0.5057    1.2794    0.1404 S   0  0  0  0  0  0  0  0  0  0  0  0
    0.8995   -0.9606   -1.8783 H   0  0  0  0  0  0  0  0  0  0  0  0
    0.3169   -2.5816   -1.4615 H   0  0  0  0  0  0  0  0  0  0  0  0
   -0.7937   -1.2034   -1.4665 H   0  0  0  0  0  0  0  0  0  0  0  0
   -0.1910   -1.8484    0.7879 H   0  0  0  0  0  0  0  0  0  0  0  0
    1.4802   -1.7245    0.5545 H   0  0  0  0  0  0  0  0  0  0  0  0
    0.8578    0.2259    1.7369 H   0  0  0  0  0  0  0  0  0  0  0  0
  1  2  1  0
  1  5  1  0
  1  6  1  0
  1  7  1  0
  2  3  1  0
  2  8  1  0
  2  9  1  0
  3  4  2  0
  3 10  1  0
M  END
>  <reaction>  (1) 
rxn_2023

>  <type>  (1) 
r1h

>  <mol_properties>  (1) 
{"1": {"label": "donator", "atom_type": "Cs"}, "7": {"label": "d_hydrogen", "atom_type": "H0"}}

>  <electro_map>  (1) 
{"7": {"R": null, "A": null, "D": null}, "1": {"R": 1.091845134289533, "A": null, "D": null}, "2": {"R": 1.4579847555004575, "A": 102.25747734367812, "D": null}, "3": {"R": 1.6242710826198947, "A": 124.41598499910766, "D": 106.32932859792582}, "0": {"R": 3.2011108020218995, "A": 52.52424327231452, "D": 350.6749923267124}, "4": {"R": 1.0920029447431998, "A": 86.94594333097733, "D": 252.01931036086347}, "5": {"R": 1.772203595944816, "A": 35.66187538494428, "D": 176.85265780485886}, "6": {"R": 1.7699683451650632, "A": 59.56323407685565, "D": 37.25126692510098}, "8": {"R": 3.086552425876733, "A": 53.446808595651675, "D": 289.8788494103375}, "9": {"R": 2.3642150547300487, "A": 89.66947734673634, "D": 182.19872304588984}}

$$$$

     RDKit          3D

  7  6  0  0  0  0  0  0  0  0999 V2000
   -0.8007    0.4416   -0.4540 S   0  0  0  0  0  0  0  0  0  0  0  0
    0.7225   -0.0736    0.1439 C   0  0  0  0  0  0  0  0  0  0  0  0
    1.0899   -1.0637    0.9257 C   0  0  0  0  0  0  0  0  0  0  0  0
   -0.5419    1.7594   -0.4183 H   0  0  0  0  0  0  0  0  0  0  0  0
    2.1391   -1.3014    1.0608 H   0  0  0  0  0  0  0  0  0  0  0  0
    0.3685   -1.6705    1.4664 H   0  0  0  0  0  0  0  0  0  0  0  0
    1.5369    0.5153   -0.2779 H   0  0  0  0  0  0  0  0  0  0  0  0
  1  2  1  0
  1  4  1  0
  2  3  2  3
  2  7  1  0
  3  5  1  0
  3  6  1  0
M  END
>  <reaction>  (2) 
rxn_2023

>  <type>  (2) 
r2h

>  <mol_properties>  (2) 
{"1": {"label": "acceptor", "atom_type": "Cd"}, "6": {"label": "a_hydrogen", "atom_type": "H0"}}

>  <electro_map>  (2) 
{"6": {"R": null, "A": null, "D": null}, "1": {"R": 1.089999936305053, "A": null, "D": null}, "2": {"R": 1.313900745065938, "A": 115.37016335202543, "D": null}, "0": {"R": 2.782707518236432, "A": 55.688608235227846, "D": 2.6680293221052263}, "3": {"R": 1.3434486938492929, "A": 112.74174304706264, "D": 321.2785889117523}, "4": {"R": 4.329414038005096, "A": 55.58850871119941, "D": 7.669184780861085}, "5": {"R": 1.8536283018635982, "A": 67.91562202226103, "D": 320.0454088230577}}

$$$$

     RDKit          3D

 16 14  0  0  0  0  0  0  0  0999 V2000
   -1.9584   -0.9564    0.0097 S   0  0  0  0  0  0  0  0  0  0  0  0
   -0.4352   -1.4716    0.6076 C   0  0  0  0  0  3  0  0  0  0  0  0
   -0.0678   -2.4617    1.3893 C   0  0  0  0  0  0  0  0  0  0  0  0
   -1.6996    0.3614    0.0453 H   0  0  0  0  0  0  0  0  0  0  0  0
    0.9814   -2.6994    1.5244 H   0  0  0  0  0  0  0  0  0  0  0  0
   -0.7893   -3.0685    1.9301 H   0  0  0  0  0  0  0  0  0  0  0  0
    1.2021   -0.2525   -2.0681 C   0  0  0  0  0  0  0  0  0  0  0  0
    1.5241   -0.0033   -0.6146 C   0  0  0  0  0  0  0  0  0  0  0  0
    1.3537    1.3366   -0.0655 C   0  0  0  0  0  0  0  0  0  0  0  0
    0.4745    2.5474   -0.6973 S   0  0  0  0  0  0  0  0  0  0  0  0
    1.8797    0.3074   -2.7160 H   0  0  0  0  0  0  0  0  0  0  0  0
    1.2971   -1.3136   -2.2992 H   0  0  0  0  0  0  0  0  0  0  0  0
    0.1865    0.0646   -2.3042 H   0  0  0  0  0  0  0  0  0  0  0  0
    0.6970   -0.6528    0.0211 H   0  0  0  0  0  0  0  0  0  0  0  0
    2.4605   -0.4566   -0.2832 H   0  0  0  0  0  0  0  0  0  0  0  0
    1.8380    1.4938    0.8992 H   0  0  0  0  0  0  0  0  0  0  0  0
  1  2  1  0
  1  4  1  0
  2  3  2  3
  3  5  1  0
  3  6  1  0
  7  8  1  0
  7 11  1  0
  7 12  1  0
  7 13  1  0
  8  9  1  0
  8 14  1  0
  8 15  1  0
  9 10  2  0
  9 16  1  0
M  RAD  1   2   2
M  END
>  <reaction>  (3) 
rxn_2023

>  <type>  (3) 
ts

>  <mol_properties>  (3) 
{"0": {"label": "*4", "atom_type": "S2s"}, "1": {"label": "*3", "atom_type": "Cd"}, "7": {"label": "*1", "atom_type": "Cs"}, "8": {"label": "*0", "atom_type": "CS"}, "13": {"label": "*2", "atom_type": "H0"}}

$$$$
