
     RDKit          3D

  7  6  0  0  0  0  0  0  0  0999 V2000
   -0.3389   -0.3778   -1.1672 C   0  0  0  0  0  0  0  0  0  0  0  0
    0.0041   -0.2972    0.2918 C   0  0  0  0  0  0  0  0  0  0  0  0
    0.3378    0.6755    0.8880 O   0  0  0  0  0  0  0  0  0  0  0  0
    0.3221   -1.1049   -1.6439 H   0  0  0  0  0  0  0  0  0  0  0  0
   -1.3575   -0.7589   -1.2682 H   0  0  0  0  0  0  0  0  0  0  0  0
   -0.2467    0.5942   -1.6499 H   0  0  0  0  0  0  0  0  0  0  0  0
   -0.0779   -1.2542    0.8071 H   0  0  0  0  0  0  0  0  0  0  0  0
  1  2  1  0
  1  4  1  0
  1  5  1  0
  1  6  1  0
  2  3  2  0
  2  7  1  0
M  END
>  <reaction>  (1) 
rxn_373

>  <type>  (1) 
r1h

>  <mol_properties>  (1) 
{"1": {"label": "donator", "atom_type": "CO"}, "6": {"label": "d_hydrogen", "atom_type": "H0"}}

>  <electro_map>  (1) 
{"6": {"R": null, "A": null, "D": null}, "1": {"R": 1.089999936305053, "A": null, "D": null}, "2": {"R": 1.188629767417674, "A": 120.16648802026936, "D": null}, "0": {"R": 2.4064851125815045, "A": 58.556461963908646, "D": 3.418294736811211e-05}, "3": {"R": 1.0921924945678896, "A": 119.5986922508626, "D": 292.4378414928759}, "4": {"R": 1.7555423573441813, "A": 36.517204622815534, "D": 140.10265058796278}, "5": {"R": 1.791837181434666, "A": 60.66784733377052, "D": 34.36128877871413}}

$$$$

     RDKit          3D

  5  4  0  0  0  0  0  0  0  0999 V2000
   -0.0036   -0.0404    0.0210 C   0  0  0  0  0  0  0  0  0  0  0  0
    0.7046   -0.6892   -0.4846 H   0  0  0  0  0  0  0  0  0  0  0  0
    0.2804    0.2446    1.0284 H   0  0  0  0  0  0  0  0  0  0  0  0
   -1.0437   -0.3291   -0.0936 H   0  0  0  0  0  0  0  0  0  0  0  0
    0.0734    0.9053   -0.5057 H   0  0  0  0  0  0  0  0  0  0  0  0
  1  2  1  0
  1  3  1  0
  1  4  1  0
  1  5  1  0
M  END
>  <reaction>  (2) 
rxn_373

>  <type>  (2) 
r2h

>  <mol_properties>  (2) 
{"0": {"label": "acceptor", "atom_type": "Cs"}, "4": {"label": "a_hydrogen", "atom_type": "H0"}}

>  <electro_map>  (2) 
{"4": {"R": null, "A": null, "D": null}, "0": {"R": 1.08522185751405, "A": null, "D": null}, "1": {"R": 1.0854189066702096, "A": 104.38978558565177, "D": null}, "2": {"R": 1.8279126361842775, "A": 56.619124839621136, "D": 322.7896293165484}, "3": {"R": 1.8279126361842775, "A": 59.9769302141265, "D": 25.67002780744803}}

$$$$

     RDKit          3D

 11  9  0  0  0  0  0  0  0  0999 V2000
    0.0036   -1.9668    1.1448 C   0  0  0  0  0  3  0  0  0  0  0  0
    0.7118   -2.6156    0.6392 H   0  0  0  0  0  0  0  0  0  0  0  0
    0.2876   -1.6818    2.1522 H   0  0  0  0  0  0  0  0  0  0  0  0
   -1.0364   -2.2555    1.0301 H   0  0  0  0  0  0  0  0  0  0  0  0
   -0.1384    0.3637   -1.6364 C   0  0  0  0  0  0  0  0  0  0  0  0
    0.2046    0.4444   -0.1774 C   0  0  0  0  0  0  0  0  0  0  0  0
    0.5384    1.4170    0.4188 O   0  0  0  0  0  0  0  0  0  0  0  0
    0.5227   -0.3634   -2.1131 H   0  0  0  0  0  0  0  0  0  0  0  0
   -1.1569   -0.0173   -1.7374 H   0  0  0  0  0  0  0  0  0  0  0  0
   -0.0461    1.3358   -2.1191 H   0  0  0  0  0  0  0  0  0  0  0  0
    0.1091   -0.6718    0.4236 H   0  0  0  0  0  0  0  0  0  0  0  0
  1  2  1  0
  1  3  1  0
  1  4  1  0
  5  6  1  0
  5  8  1  0
  5  9  1  0
  5 10  1  0
  6  7  2  0
  6 11  1  0
M  RAD  1   1   2
M  END
>  <reaction>  (3) 
rxn_373

>  <type>  (3) 
ts

>  <mol_properties>  (3) 
{"0": {"label": "*3", "atom_type": "Cs"}, "1": {"label": "*4", "atom_type": "H0"}, "5": {"label": "*1", "atom_type": "CO"}, "6": {"label": "*0", "atom_type": "O2d"}, "10": {"label": "*2", "atom_type": "H0"}}

$$$$
