
     RDKit          3D

  7  6  0  0  0  0  0  0  0  0999 V2000
   -0.0764    0.8860    0.6831 N   0  0  0  0  0  0  0  0  0  0  0  0
    0.1046   -0.3433    0.2263 N   0  0  0  0  0  0  0  0  0  0  0  0
    0.0534   -0.6675   -0.9979 C   0  0  0  0  0  0  0  0  0  0  0  0
   -0.1387    0.8016    1.6994 H   0  0  0  0  0  0  0  0  0  0  0  0
   -0.9649    1.2716    0.3581 H   0  0  0  0  0  0  0  0  0  0  0  0
    0.2036   -1.7083   -1.2545 H   0  0  0  0  0  0  0  0  0  0  0  0
   -0.1118    0.0622   -1.7913 H   0  0  0  0  0  0  0  0  0  0  0  0
  1  2  1  0
  1  4  1  0
  1  5  1  0
  2  3  2  3
  3  6  1  0
  3  7  1  0
M  END
>  <reaction>  (1) 
rxn_723

>  <type>  (1) 
r1h

>  <mol_properties>  (1) 
{"0": {"label": "donator", "atom_type": "N3s"}, "3": {"label": "d_hydrogen", "atom_type": "H0"}}

>  <electro_map>  (1) 
{"3": {"R": null, "A": null, "D": null}, "0": {"R": 1.0216412104743295, "A": null, "D": null}, "1": {"R": 1.3239013831702986, "A": 105.95411583614722, "D": null}, "2": {"R": 1.2674345572918222, "A": 155.0435211851997, "D": 340.7985559287834}, "4": {"R": 2.5759885316380227, "A": 46.76485279863603, "D": 335.63701748159593}, "5": {"R": 3.584086287294226, "A": 7.438859764240469, "D": 298.6160442755717}, "6": {"R": 1.8767967516237654, "A": 44.729353769909274, "D": 329.44372662994624}}

$$$$

     RDKit          3D

  4  3  0  0  0  0  0  0  0  0999 V2000
    0.1635    0.6626    0.0799 O   0  0  0  0  0  0  0  0  0  0  0  0
   -0.2282   -0.6535   -0.0107 O   0  0  0  0  0  0  0  0  0  0  0  0
    0.6039   -1.1371   -0.0899 H   0  0  0  0  0  0  0  0  0  0  0  0
    0.3769    0.9344   -0.8157 H   0  0  0  0  0  0  0  0  0  0  0  0
  1  2  1  0
  1  4  1  0
  2  3  1  0
M  END
>  <reaction>  (2) 
rxn_723

>  <type>  (2) 
r2h

>  <mol_properties>  (2) 
{"0": {"label": "acceptor", "atom_type": "O2s"}, "3": {"label": "a_hydrogen", "atom_type": "H0"}}

>  <electro_map>  (2) 
{"3": {"R": null, "A": null, "D": null}, "0": {"R": 0.9600000227987764, "A": null, "D": null}, "1": {"R": 1.3761678417881928, "A": 105.81643959041777, "D": null}, "2": {"R": 0.9656397512846169, "A": 96.34504379685048, "D": 252.99170462150198}}

$$$$

     RDKit          3D

 10  8  0  0  0  0  0  0  0  0999 V2000
   -0.0927    0.6786    1.7620 O   0  0  0  0  0  0  0  0  0  0  0  0
   -0.4844   -0.6375    1.6713 O   0  0  0  0  0  0  0  0  0  0  0  0
    0.3477   -1.1210    1.5922 H   0  0  0  0  0  0  0  0  0  0  0  0
    0.2432    1.1127   -0.5768 N   0  0  0  0  0  2  0  0  0  0  0  0
    0.4242   -0.1166   -1.0336 N   0  0  0  0  0  0  0  0  0  0  0  0
    0.3730   -0.4408   -2.2578 C   0  0  0  0  0  0  0  0  0  0  0  0
    0.1666    1.0089    0.6737 H   0  0  0  0  0  0  0  0  0  0  0  0
   -0.6453    1.4983   -0.9018 H   0  0  0  0  0  0  0  0  0  0  0  0
    0.5232   -1.4815   -2.5144 H   0  0  0  0  0  0  0  0  0  0  0  0
    0.2078    0.2890   -3.0512 H   0  0  0  0  0  0  0  0  0  0  0  0
  1  2  1  0
  1  7  1  0
  2  3  1  0
  4  5  1  0
  4  8  1  0
  5  6  2  3
  6  9  1  0
  6 10  1  0
M  RAD  1   4   2
M  END
>  <reaction>  (3) 
rxn_723

>  <type>  (3) 
ts

>  <mol_properties>  (3) 
{"0": {"label": "*1", "atom_type": "O2s"}, "1": {"label": "*0", "atom_type": "O2s"}, "3": {"label": "*3", "atom_type": "N3s"}, "4": {"label": "*4", "atom_type": "N3d"}, "6": {"label": "*2", "atom_type": "H0"}}

$$$$
