
     RDKit          3D

  5  4  0  0  0  0  0  0  0  0999 V2000
   -0.1307    0.0259   -0.6866 N   0  0  0  0  0  0  0  0  0  0  0  0
    0.1270   -0.0299    0.6645 O   0  0  0  0  0  0  0  0  0  0  0  0
   -0.9476   -0.5445   -0.8695 H   0  0  0  0  0  0  0  0  0  0  0  0
    0.6708   -0.3607   -1.1706 H   0  0  0  0  0  0  0  0  0  0  0  0
    0.0836    0.8748    0.9826 H   0  0  0  0  0  0  0  0  0  0  0  0
  1  2  1  0
  1  3  1  0
  1  4  1  0
  2  5  1  0
M  END
>  <reaction>  (1) 
rxn_715

>  <type>  (1) 
r1h

>  <mol_properties>  (1) 
{"1": {"label": "donator", "atom_type": "O2s"}, "4": {"label": "d_hydrogen", "atom_type": "H0"}}

>  <electro_map>  (1) 
{"4": {"R": null, "A": null, "D": null}, "1": {"R": 0.9600000227987764, "A": null, "D": null}, "0": {"R": 1.376525466195625, "A": 106.17178798947761, "D": null}, "2": {"R": 1.0130061497478087, "A": 120.34128266138673, "D": 71.31968551554657}, "3": {"R": 1.6564025088936312, "A": 35.15794404096048, "D": 242.91539269005418}}

$$$$

     RDKit          3D

  5  4  0  0  0  0  0  0  0  0999 V2000
    0.0674   -1.0064   -0.2515 H   0  0  0  0  0  0  0  0  0  0  0  0
   -0.0024    0.0433    0.0136 C   0  0  0  0  0  0  0  0  0  0  0  0
   -0.2307    0.4446   -0.9686 H   0  0  0  0  0  0  0  0  0  0  0  0
   -0.8104    0.0816    0.7361 H   0  0  0  0  0  0  0  0  0  0  0  0
    0.9808    0.2849    0.4028 H   0  0  0  0  0  0  0  0  0  0  0  0
  1  2  1  0
  2  3  1  0
  2  4  1  0
  2  5  1  0
M  END
>  <reaction>  (2) 
rxn_715

>  <type>  (2) 
r2h

>  <mol_properties>  (2) 
{"0": {"label": "a_hydrogen", "atom_type": "H0"}, "1": {"label": "acceptor", "atom_type": "Cs"}}

>  <electro_map>  (2) 
{"0": {"R": null, "A": null, "D": null}, "1": {"R": 1.0848682545956476, "A": null, "D": null}, "2": {"R": 1.0853708009797882, "A": 98.63267029527769, "D": null}, "3": {"R": 1.8368594188360334, "A": 58.56883489131074, "D": 324.20969530739256}, "4": {"R": 1.8332175377198523, "A": 60.06554029280839, "D": 23.65955651442407}}

$$$$

     RDKit          3D

  9  7  0  0  0  0  0  0  0  0999 V2000
   -0.0971   -0.7781   -1.1188 N   0  0  0  0  0  0  0  0  0  0  0  0
    0.1607   -0.8340    0.2322 O   0  0  0  0  0  0  0  0  0  0  0  0
   -0.9140   -1.3485   -1.3017 H   0  0  0  0  0  0  0  0  0  0  0  0
    0.7044   -1.1648   -1.6029 H   0  0  0  0  0  0  0  0  0  0  0  0
    0.1102    0.2161    0.6015 H   0  0  0  0  0  0  0  0  0  0  0  0
    0.0191    1.5858    0.9475 C   0  0  0  0  0  3  0  0  0  0  0  0
   -0.2093    1.9871   -0.0347 H   0  0  0  0  0  0  0  0  0  0  0  0
   -0.7890    1.6241    1.6700 H   0  0  0  0  0  0  0  0  0  0  0  0
    1.0022    1.8274    1.3367 H   0  0  0  0  0  0  0  0  0  0  0  0
  1  2  1  0
  1  3  1  0
  1  4  1  0
  2  5  1  0
  6  7  1  0
  6  8  1  0
  6  9  1  0
M  RAD  1   6   2
M  END
>  <reaction>  (3) 
rxn_715

>  <type>  (3) 
ts

>  <mol_properties>  (3) 
{"0": {"label": "*0", "atom_type": "N3s"}, "1": {"label": "*1", "atom_type": "O2s"}, "4": {"label": "*2", "atom_type": "H0"}, "5": {"label": "*3", "atom_type": "Cs"}, "6": {"label": "*4", "atom_type": "H0"}}

$$$$
