
     RDKit          3D

  5  4  0  0  0  0  0  0  0  0999 V2000
   -0.4886   -0.3926    0.0092 N   0  0  0  0  0  0  0  0  0  0  0  0
    0.4298    0.4361   -0.0057 C   0  0  0  0  0  0  0  0  0  0  0  0
    0.2666    1.5152    0.0284 H   0  0  0  0  0  0  0  0  0  0  0  0
   -0.1983   -1.3681   -0.0273 H   0  0  0  0  0  0  0  0  0  0  0  0
    1.4820    0.1480   -0.0546 H   0  0  0  0  0  0  0  0  0  0  0  0
  1  2  2  3
  1  4  1  0
  2  3  1  0
  2  5  1  0
M  END
>  <reaction>  (1) 
rxn_673

>  <type>  (1) 
r1h

>  <mol_properties>  (1) 
{"1": {"label": "donator", "atom_type": "Cd"}, "4": {"label": "d_hydrogen", "atom_type": "H0"}}

>  <electro_map>  (1) 
{"4": {"R": null, "A": null, "D": null}, "1": {"R": 1.091921067382388, "A": null, "D": null}, "0": {"R": 1.2370670274015545, "A": 122.62946792585515, "D": null}, "3": {"R": 1.0184119500334863, "A": 88.70870598662299, "D": 179.9999485110073}, "2": {"R": 2.920993284307202, "A": 25.737116942023935, "D": 1.666499673782919e-05}}

$$$$

     RDKit          3D

  2  1  0  0  0  0  0  0  0  0999 V2000
    0.0749   -0.0259   -0.0036 O   0  0  0  0  0  1  0  0  0  0  0  0
   -0.8315    0.2874    0.0402 H   0  0  0  0  0  0  0  0  0  0  0  0
  1  2  1  0
M  RAD  1   1   2
M  END
>  <reaction>  (2) 
rxn_673

>  <type>  (2) 
r2h

>  <mol_properties>  (2) 
{"0": {"label": "acceptor", "atom_type": "O2s"}, "1": {"label": "a_hydrogen", "atom_type": "H0"}}

>  <electro_map>  (2) 
{"1": {"R": null, "A": null, "D": null}, "0": {"R": 0.9599999607106042, "A": null, "D": null}}

$$$$

     RDKit          3D

  6  4  0  0  0  0  0  0  0  0999 V2000
    2.1188   -0.3187   -0.0917 O   0  0  0  0  0 15  0  0  0  0  0  0
   -1.2346   -0.3900    0.0387 N   0  0  0  0  0  0  0  0  0  0  0  0
   -0.3162    0.4386    0.0237 C   0  0  0  0  0  0  0  0  0  0  0  0
   -0.4795    1.5177    0.0579 H   0  0  0  0  0  0  0  0  0  0  0  0
   -0.9444   -1.3655    0.0022 H   0  0  0  0  0  0  0  0  0  0  0  0
    0.8559    0.1178   -0.0307 H   0  0  0  0  0  0  0  0  0  0  0  0
  2  3  2  3
  2  5  1  0
  3  4  1  0
  3  6  1  0
M  END
>  <reaction>  (3) 
rxn_673

>  <type>  (3) 
ts

>  <mol_properties>  (3) 
{"0": {"label": "*3", "atom_type": "O2s"}, "1": {"label": "*0", "atom_type": "N3d"}, "2": {"label": "*1", "atom_type": "Cd"}, "5": {"label": "*2", "atom_type": "H0"}}

$$$$
