
     RDKit          3D

  5  4  0  0  0  0  0  0  0  0999 V2000
   -0.0084   -0.0380   -0.0198 C   0  0  0  0  0  0  0  0  0  0  0  0
    0.1541    0.9144    0.4742 H   0  0  0  0  0  0  0  0  0  0  0  0
   -0.5368    0.2186   -0.9321 H   0  0  0  0  0  0  0  0  0  0  0  0
    1.0153   -0.3689   -0.1599 H   0  0  0  0  0  0  0  0  0  0  0  0
   -0.5842   -0.6172    0.6947 H   0  0  0  0  0  0  0  0  0  0  0  0
  1  2  1  0
  1  3  1  0
  1  4  1  0
  1  5  1  0
M  END
>  <reaction>  (1) 
rxn_865

>  <type>  (1) 
r1h

>  <mol_properties>  (1) 
{"0": {"label": "donator", "atom_type": "Cs"}, "1": {"label": "d_hydrogen", "atom_type": "H0"}}

>  <electro_map>  (1) 
{"1": {"R": null, "A": null, "D": null}, "0": {"R": 1.0850695701887791, "A": null, "D": null}, "2": {"R": 1.0850695701887791, "A": 104.37273732650947, "D": null}, "3": {"R": 1.8304225796954554, "A": 56.116141670107396, "D": 322.36215506511604}, "4": {"R": 1.8304225796954554, "A": 59.96894300059978, "D": 25.046272512698526}}

$$$$

     RDKit          3D

  5  4  0  0  0  0  0  0  0  0999 V2000
   -1.4951    0.2062    0.0621 S   0  0  0  0  0  0  0  0  0  0  0  0
    0.0317   -0.4998   -0.2558 C   0  0  0  0  0  0  0  0  0  0  0  0
    1.5226   -0.0097    0.0396 S   0  0  0  0  0  0  0  0  0  0  0  0
   -1.0657    1.3351    0.6547 H   0  0  0  0  0  0  0  0  0  0  0  0
   -0.1507   -1.4534   -0.7510 H   0  0  0  0  0  0  0  0  0  0  0  0
  1  2  1  0
  1  4  1  0
  2  3  2  0
  2  5  1  0
M  END
>  <reaction>  (2) 
rxn_865

>  <type>  (2) 
r2h

>  <mol_properties>  (2) 
{"1": {"label": "acceptor", "atom_type": "CS"}, "4": {"label": "a_hydrogen", "atom_type": "H0"}}

>  <electro_map>  (2) 
{"4": {"R": null, "A": null, "D": null}, "1": {"R": 1.0900000456713745, "A": null, "D": null}, "2": {"R": 1.5968827518043565, "A": 120.58533004447338, "D": null}, "0": {"R": 3.0255126140472113, "A": 48.344548063913656, "D": 2.5197173281906035e-05}, "3": {"R": 1.3453697821531803, "A": 75.21404538019597, "D": 179.99986769813827}}

$$$$

     RDKit          3D

  9  7  0  0  0  0  0  0  0  0999 V2000
   -1.1778    0.5396    0.4954 S   0  0  0  0  0  0  0  0  0  0  0  0
    0.3491   -0.1663    0.1775 C   0  0  0  0  0  0  0  0  0  0  0  0
    1.8399    0.3237    0.4729 S   0  0  0  0  0  0  0  0  0  0  0  0
   -0.7484    1.6685    1.0880 H   0  0  0  0  0  0  0  0  0  0  0  0
   -0.0794   -2.5418   -1.0553 C   0  0  0  0  0  3  0  0  0  0  0  0
    0.1352   -1.2843   -0.4031 H   0  0  0  0  0  0  0  0  0  0  0  0
   -0.6077   -2.2853   -1.9677 H   0  0  0  0  0  0  0  0  0  0  0  0
    0.9444   -2.8727   -1.1955 H   0  0  0  0  0  0  0  0  0  0  0  0
   -0.6552   -3.1210   -0.3409 H   0  0  0  0  0  0  0  0  0  0  0  0
  1  2  1  0
  1  4  1  0
  2  3  2  0
  2  6  1  0
  5  7  1  0
  5  8  1  0
  5  9  1  0
M  RAD  1   5   2
M  END
>  <reaction>  (3) 
rxn_865

>  <type>  (3) 
ts

>  <mol_properties>  (3) 
{"0": {"label": "*0", "atom_type": "S2s"}, "1": {"label": "*1", "atom_type": "CS"}, "4": {"label": "*3", "atom_type": "Cs"}, "5": {"label": "*2", "atom_type": "H0"}, "6": {"label": "*4", "atom_type": "H0"}}

$$$$
