
     RDKit          3D

  4  3  0  0  0  0  0  0  0  0999 V2000
    0.0028   -0.0636    0.0360 N   0  0  0  0  0  0  0  0  0  0  0  0
    0.1884    0.8118    0.5247 H   0  0  0  0  0  0  0  0  0  0  0  0
   -0.9230    0.0102   -0.3848 H   0  0  0  0  0  0  0  0  0  0  0  0
    0.6570   -0.1245   -0.7436 H   0  0  0  0  0  0  0  0  0  0  0  0
  1  2  1  0
  1  3  1  0
  1  4  1  0
M  END
>  <reaction>  (1) 
rxn_3118

>  <type>  (1) 
r1h

>  <mol_properties>  (1) 
{"0": {"label": "donator", "atom_type": "N3s"}, "1": {"label": "d_hydrogen", "atom_type": "H0"}}

>  <electro_map>  (1) 
{"1": {"R": null, "A": null, "D": null}, "0": {"R": 1.0195908803053806, "A": null, "D": null}, "2": {"R": 1.0195908803053806, "A": 107.51734147640327, "D": null}, "3": {"R": 1.6258853554561938, "A": 60.377081752050216, "D": 320.8711824583662}}

$$$$

     RDKit          3D

  7  7  0  0  0  0  0  0  0  0999 V2000
    0.2531   -1.2243    1.5746 N   0  0  0  0  0  0  0  0  0  0  0  0
    0.0931   -0.4846    0.5919 C   0  0  0  0  0  0  0  0  0  0  0  0
    0.2132    0.8791    0.6089 O   0  0  0  0  0  0  0  0  0  0  0  0
   -0.0374    1.3282   -0.6635 N   0  0  0  0  0  0  0  0  0  0  0  0
   -0.2861    0.3915   -1.4071 N   0  0  0  0  0  0  0  0  0  0  0  0
   -0.2281   -0.7956   -0.7055 O   0  0  0  0  0  0  0  0  0  0  0  0
    0.1287   -2.2435    1.4095 H   0  0  0  0  0  0  0  0  0  0  0  0
  1  2  2  3
  1  7  1  0
  2  3  1  0
  2  6  1  0
  3  4  1  0
  4  5  2  0
  5  6  1  0
M  END
>  <reaction>  (2) 
rxn_3118

>  <type>  (2) 
r2h

>  <mol_properties>  (2) 
{"0": {"label": "acceptor", "atom_type": "N3d"}, "6": {"label": "a_hydrogen", "atom_type": "H0"}}

>  <electro_map>  (2) 
{"6": {"R": null, "A": null, "D": null}, "0": {"R": 1.0399999190293794, "A": null, "D": null}, "1": {"R": 1.2403447620197132, "A": 116.31193591715756, "D": null}, "2": {"R": 1.3690409277126523, "A": 153.66895140684315, "D": 359.9997537577078}, "5": {"R": 2.1741390365808075, "A": 37.57493502164083, "D": 179.99994524521225}, "3": {"R": 2.1327105487308793, "A": 37.148260587605115, "D": 179.9999921750353}, "4": {"R": 1.2214749513072884, "A": 37.45979390752456, "D": 180.00007641631854}}

$$$$

     RDKit          3D

 10  9  0  0  0  0  0  0  0  0999 V2000
    0.2264   -0.7425    1.4864 N   0  0  0  0  0  2  0  0  0  0  0  0
    0.0664   -0.0028    0.5037 C   0  0  0  0  0  0  0  0  0  0  0  0
    0.1865    1.3608    0.5207 O   0  0  0  0  0  0  0  0  0  0  0  0
   -0.0641    1.8099   -0.7517 N   0  0  0  0  0  0  0  0  0  0  0  0
   -0.3128    0.8733   -1.4952 N   0  0  0  0  0  0  0  0  0  0  0  0
   -0.2548   -0.3138   -0.7937 O   0  0  0  0  0  0  0  0  0  0  0  0
   -0.1466   -3.0163    0.6977 N   0  0  0  0  0  0  0  0  0  0  0  0
    0.0784   -1.9554    1.2900 H   0  0  0  0  0  0  0  0  0  0  0  0
   -1.0724   -2.9425    0.2769 H   0  0  0  0  0  0  0  0  0  0  0  0
    0.5077   -3.0773   -0.0819 H   0  0  0  0  0  0  0  0  0  0  0  0
  1  2  2  0
  2  3  1  0
  2  6  1  0
  3  4  1  0
  4  5  2  0
  5  6  1  0
  7  8  1  0
  7  9  1  0
  7 10  1  0
M  RAD  1   1   2
M  END
>  <reaction>  (3) 
rxn_3118

>  <type>  (3) 
ts

>  <mol_properties>  (3) 
{"0": {"label": "*3", "atom_type": "N3d"}, "1": {"label": "*4", "atom_type": "Cd"}, "6": {"label": "*1", "atom_type": "N3s"}, "7": {"label": "*2", "atom_type": "H0"}, "8": {"label": "*0", "atom_type": "H0"}}

$$$$
