
     RDKit          3D

  6  5  0  0  0  0  0  0  0  0999 V2000
    0.8464   -0.0661    0.8077 C   0  0  0  0  0  0  0  0  0  0  0  0
   -0.4168   -0.0172   -0.3870 S   0  0  0  0  0  0  0  0  0  0  0  0
    0.5933    0.6860    1.5473 H   0  0  0  0  0  0  0  0  0  0  0  0
    0.8452   -0.9952    1.3683 H   0  0  0  0  0  0  0  0  0  0  0  0
    1.8270    0.2754    0.4954 H   0  0  0  0  0  0  0  0  0  0  0  0
   -0.0382    1.1155   -0.9945 H   0  0  0  0  0  0  0  0  0  0  0  0
  1  2  1  0
  1  3  1  0
  1  4  1  0
  1  5  1  0
  2  6  1  0
M  END
>  <reaction>  (1) 
rxn_1845

>  <type>  (1) 
r1h

>  <mol_properties>  (1) 
{"0": {"label": "donator", "atom_type": "Cs"}, "2": {"label": "d_hydrogen", "atom_type": "H0"}}

>  <electro_map>  (1) 
{"2": {"R": null, "A": null, "D": null}, "0": {"R": 1.0847451779200556, "A": null, "D": null}, "1": {"R": 1.7393424577372552, "A": 106.22326017559838, "D": null}, "5": {"R": 1.3398135434852334, "A": 89.92997004171757, "D": 253.22906820952298}, "3": {"R": 3.2890539463684054, "A": 37.60014061818089, "D": 3.945666903927573}, "4": {"R": 1.8276491768585883, "A": 49.84081313239944, "D": 162.6260470645456}}

$$$$

     RDKit          3D

  7  6  0  0  0  0  0  0  0  0999 V2000
    0.5431   -2.0565    0.5195 H   0  0  0  0  0  0  0  0  0  0  0  0
    0.3346   -1.2086    1.1679 C   0  0  0  0  0  0  0  0  0  0  0  0
   -0.4953   -0.3564    0.3612 C   0  0  0  0  0  0  0  0  0  0  0  0
    0.0540    0.7520   -0.7075 S   0  0  0  0  0  0  0  0  0  0  0  0
   -0.1460   -1.6643    2.0313 H   0  0  0  0  0  0  0  0  0  0  0  0
    1.3366   -0.8340    1.3615 H   0  0  0  0  0  0  0  0  0  0  0  0
   -1.5692   -0.5233    0.4374 H   0  0  0  0  0  0  0  0  0  0  0  0
  1  2  1  0
  2  3  1  0
  2  5  1  0
  2  6  1  0
  3  4  2  0
  3  7  1  0
M  END
>  <reaction>  (2) 
rxn_1845

>  <type>  (2) 
r2h

>  <mol_properties>  (2) 
{"0": {"label": "a_hydrogen", "atom_type": "H0"}, "1": {"label": "acceptor", "atom_type": "Cs"}}

>  <electro_map>  (2) 
{"0": {"R": null, "A": null, "D": null}, "1": {"R": 1.0876451417377375, "A": null, "D": null}, "2": {"R": 1.4372548433316117, "A": 103.78748052446451, "D": null}, "3": {"R": 1.6347830531058383, "A": 116.99926597335764, "D": 113.7347252908972}, "4": {"R": 3.657887931479407, "A": 17.105422360537585, "D": 343.59662115772824}, "5": {"R": 1.8265296300014056, "A": 51.737608314362994, "D": 172.23861378203364}, "6": {"R": 3.06502708958265, "A": 52.200750924347744, "D": 359.8555157564887}}

$$$$

     RDKit          3D

 12 10  0  0  0  0  0  0  0  0999 V2000
    1.0655   -1.9413   -0.2469 C   0  0  0  0  0  3  0  0  0  0  0  0
   -0.1976   -1.8924   -1.4417 S   0  0  0  0  0  0  0  0  0  0  0  0
    0.7286   -0.9401    0.7377 H   0  0  0  0  0  0  0  0  0  0  0  0
    1.0643   -2.8704    0.3137 H   0  0  0  0  0  0  0  0  0  0  0  0
    2.0462   -1.5999   -0.5592 H   0  0  0  0  0  0  0  0  0  0  0  0
    0.1809   -0.7597   -2.0491 H   0  0  0  0  0  0  0  0  0  0  0  0
    0.4843    0.0534    1.4975 C   0  0  0  0  0  0  0  0  0  0  0  0
   -0.3456    0.9056    0.6908 C   0  0  0  0  0  0  0  0  0  0  0  0
    0.2036    2.0140   -0.3780 S   0  0  0  0  0  0  0  0  0  0  0  0
    0.0037   -0.4024    2.3609 H   0  0  0  0  0  0  0  0  0  0  0  0
    1.4863    0.4280    1.6910 H   0  0  0  0  0  0  0  0  0  0  0  0
   -1.4196    0.7386    0.7669 H   0  0  0  0  0  0  0  0  0  0  0  0
  1  2  1  0
  1  4  1  0
  1  5  1  0
  2  6  1  0
  3  7  1  0
  7  8  1  0
  7 10  1  0
  7 11  1  0
  8  9  2  0
  8 12  1  0
M  RAD  1   1   2
M  END
>  <reaction>  (3) 
rxn_1845

>  <type>  (3) 
ts

>  <mol_properties>  (3) 
{"0": {"label": "*3", "atom_type": "Cs"}, "1": {"label": "*4", "atom_type": "S2s"}, "2": {"label": "*2", "atom_type": "H0"}, "6": {"label": "*1", "atom_type": "Cs"}, "7": {"label": "*0", "atom_type": "CS"}}

$$$$
