
     RDKit          3D

  7  6  0  0  0  0  0  0  0  0999 V2000
    0.0272    0.0367    1.2840 C   0  0  0  0  0  0  0  0  0  0  0  0
    0.0216    0.0291    0.0052 C   0  0  0  0  0  0  0  0  0  0  0  0
   -0.0305   -0.0411   -1.3008 C   0  0  0  0  0  0  0  0  0  0  0  0
   -0.5420   -0.7309    1.7855 H   0  0  0  0  0  0  0  0  0  0  0  0
    0.5197    0.7008    1.9776 H   0  0  0  0  0  0  0  0  0  0  0  0
   -0.7937    0.4892   -1.8568 H   0  0  0  0  0  0  0  0  0  0  0  0
    0.6986   -0.6175   -1.8568 H   0  0  0  0  0  0  0  0  0  0  0  0
  1  2  2  0
  1  4  1  0
  1  5  1  0
  2  3  2  0
  3  6  1  0
  3  7  1  0
M  END
>  <reaction>  (1) 
rxn_248

>  <type>  (1) 
r1h

>  <mol_properties>  (1) 
{"0": {"label": "donator", "atom_type": "Cd"}, "3": {"label": "d_hydrogen", "atom_type": "H0"}}

>  <electro_map>  (1) 
{"3": {"R": null, "A": null, "D": null}, "0": {"R": 1.07918010443099, "A": null, "D": null}, "1": {"R": 1.2788224833092117, "A": 117.26694791813179, "D": null}, "2": {"R": 1.3089564489779806, "A": 148.17742264598195, "D": 179.99992644156592}, "4": {"R": 3.406013550557248, "A": 11.90338411728946, "D": 180.00067504562375}, "5": {"R": 4.058623356936043, "A": 13.349266949879553, "D": 262.4447106814466}, "6": {"R": 1.8578916130193222, "A": 76.76876549882299, "D": 352.2373296631271}}

$$$$

     RDKit          3D

  2  1  0  0  0  0  0  0  0  0999 V2000
    0.1265    0.1707   -0.1227 H   0  0  0  0  0  0  0  0  0  0  0  0
   -0.2552   -0.3441    0.2473 H   0  0  0  0  0  0  0  0  0  0  0  0
  1  2  1  0
M  END
>  <reaction>  (2) 
rxn_248

>  <type>  (2) 
r2h

>  <mol_properties>  (2) 
{"0": {"label": "a_hydrogen", "atom_type": "H0"}, "1": {"label": "acceptor", "atom_type": "H0"}}

>  <electro_map>  (2) 
{"0": {"R": null, "A": null, "D": null}, "1": {"R": 0.7400000208777348, "A": null, "D": null}}

$$$$

     RDKit          3D

  8  6  0  0  0  0  0  0  0  0999 V2000
    0.0726    0.0979    1.2274 C   0  0  0  0  0  0  0  0  0  0  0  0
    0.0670    0.0904   -0.0514 C   0  0  0  0  0  0  0  0  0  0  0  0
    0.0149    0.0201   -1.3574 C   0  0  0  0  0  0  0  0  0  0  0  0
   -0.5969   -0.8049    1.8172 H   0  0  0  0  0  0  0  0  0  0  0  0
    0.5651    0.7621    1.9210 H   0  0  0  0  0  0  0  0  0  0  0  0
   -0.7483    0.5504   -1.9134 H   0  0  0  0  0  0  0  0  0  0  0  0
    0.7440   -0.5562   -1.9134 H   0  0  0  0  0  0  0  0  0  0  0  0
   -1.1072   -1.4932    2.3119 H   0  0  0  0  0 15  0  0  0  0  0  0
  1  2  2  0
  1  4  1  0
  1  5  1  0
  2  3  2  0
  3  6  1  0
  3  7  1  0
M  END
>  <reaction>  (3) 
rxn_248

>  <type>  (3) 
ts

>  <mol_properties>  (3) 
{"0": {"label": "*3", "atom_type": "Cd"}, "1": {"label": "*4", "atom_type": "Cdd"}, "3": {"label": "*2", "atom_type": "H0"}, "7": {"label": "*1", "atom_type": "H0"}}

$$$$
