
     RDKit          3D

  5  4  0  0  0  0  0  0  0  0999 V2000
   -0.2494   -0.5586    0.1180 C   0  0  0  0  0  0  0  0  0  0  0  0
    0.2694    0.5410   -0.1884 N   0  0  0  0  0  0  0  0  0  0  0  0
   -0.6963   -0.7770    1.0939 H   0  0  0  0  0  0  0  0  0  0  0  0
   -0.2663   -1.3622   -0.6219 H   0  0  0  0  0  0  0  0  0  0  0  0
    0.1988    1.1832    0.6266 H   0  0  0  0  0  0  0  0  0  0  0  0
  1  2  2  3
  1  3  1  0
  1  4  1  0
  2  5  1  0
M  END
>  <reaction>  (1) 
rxn_670

>  <type>  (1) 
r1h

>  <mol_properties>  (1) 
{"1": {"label": "donator", "atom_type": "N3d"}, "4": {"label": "d_hydrogen", "atom_type": "H0"}}

>  <electro_map>  (1) 
{"4": {"R": null, "A": null, "D": null}, "1": {"R": 1.0399999763415406, "A": null, "D": null}, "0": {"R": 1.253859617132641, "A": 108.7805594987305, "D": null}, "2": {"R": 1.0953784264329505, "A": 92.3581321032522, "D": 179.9999901168555}, "3": {"R": 1.8631181625552988, "A": 31.5659958408694, "D": 179.99996198070127}}

$$$$

     RDKit          3D

  5  4  0  0  0  0  0  0  0  0999 V2000
    0.1465   -0.5168   -0.8947 H   0  0  0  0  0  0  0  0  0  0  0  0
   -0.0065    0.0194    0.0363 C   0  0  0  0  0  0  0  0  0  0  0  0
    0.4327    0.9858   -0.1880 H   0  0  0  0  0  0  0  0  0  0  0  0
   -1.0841    0.0306    0.1656 H   0  0  0  0  0  0  0  0  0  0  0  0
    0.5350   -0.5640    0.7742 H   0  0  0  0  0  0  0  0  0  0  0  0
  1  2  1  0
  2  3  1  0
  2  4  1  0
  2  5  1  0
M  END
>  <reaction>  (2) 
rxn_670

>  <type>  (2) 
r2h

>  <mol_properties>  (2) 
{"0": {"label": "a_hydrogen", "atom_type": "H0"}, "1": {"label": "acceptor", "atom_type": "Cs"}}

>  <electro_map>  (2) 
{"0": {"R": null, "A": null, "D": null}, "1": {"R": 1.085218342377106, "A": null, "D": null}, "2": {"R": 1.0849957670841182, "A": 101.8686067263027, "D": null}, "3": {"R": 1.8270561158238305, "A": 58.25794230671775, "D": 323.94563546758377}, "4": {"R": 1.8289511354487782, "A": 59.96573239287779, "D": 25.636685789675823}}

$$$$

     RDKit          3D

  9  7  0  0  0  0  0  0  0  0999 V2000
   -0.1394   -0.9799   -0.8411 C   0  0  0  0  0  0  0  0  0  0  0  0
    0.3793    0.1198   -1.1475 N   0  0  0  0  0  0  0  0  0  0  0  0
   -0.5864   -1.1982    0.1348 H   0  0  0  0  0  0  0  0  0  0  0  0
   -0.1564   -1.7834   -1.5810 H   0  0  0  0  0  0  0  0  0  0  0  0
    0.2988    0.8523   -0.2178 H   0  0  0  0  0  0  0  0  0  0  0  0
    0.0982    1.5552    1.0025 C   0  0  0  0  0  3  0  0  0  0  0  0
    0.5374    2.5216    0.7781 H   0  0  0  0  0  0  0  0  0  0  0  0
   -0.9794    1.5663    1.1318 H   0  0  0  0  0  0  0  0  0  0  0  0
    0.6397    0.9718    1.7403 H   0  0  0  0  0  0  0  0  0  0  0  0
  1  2  2  3
  1  3  1  0
  1  4  1  0
  2  5  1  0
  6  7  1  0
  6  8  1  0
  6  9  1  0
M  RAD  1   6   2
M  END
>  <reaction>  (3) 
rxn_670

>  <type>  (3) 
ts

>  <mol_properties>  (3) 
{"0": {"label": "*0", "atom_type": "Cd"}, "1": {"label": "*1", "atom_type": "N3d"}, "4": {"label": "*2", "atom_type": "H0"}, "5": {"label": "*3", "atom_type": "Cs"}, "6": {"label": "*4", "atom_type": "H0"}}

$$$$
