
     RDKit          3D

  2  1  0  0  0  0  0  0  0  0999 V2000
    0.0614   -0.0095   -0.5473 H   0  0  0  0  0  0  0  0  0  0  0  0
   -0.0211    0.0032    0.1880 H   0  0  0  0  0  0  0  0  0  0  0  0
  1  2  1  0
M  END
>  <reaction>  (1) 
rxn_816

>  <type>  (1) 
r1h

>  <mol_properties>  (1) 
{"0": {"label": "donator", "atom_type": "H0"}, "1": {"label": "d_hydrogen", "atom_type": "H0"}}

>  <electro_map>  (1) 
{"1": {"R": null, "A": null, "D": null}, "0": {"R": 0.7400000208777348, "A": null, "D": null}}

$$$$

     RDKit          3D

  8  7  0  0  0  0  0  0  0  0999 V2000
    0.6017    0.1231   -1.6623 H   0  0  0  0  0  0  0  0  0  0  0  0
    0.6148    1.9797   -0.3141 S   0  0  0  0  0  0  0  0  0  0  0  0
    0.5902    0.1950   -0.5771 C   0  0  0  0  0  0  0  0  0  0  0  0
   -0.6261   -0.4905   -0.1173 C   0  0  0  0  0  0  0  0  0  0  0  0
   -0.6411   -1.9250    0.6175 S   0  0  0  0  0  0  0  0  0  0  0  0
    0.7057    1.9247    1.0220 H   0  0  0  0  0  0  0  0  0  0  0  0
    1.5086   -0.3012   -0.2720 H   0  0  0  0  0  0  0  0  0  0  0  0
   -1.5557    0.0429   -0.3173 H   0  0  0  0  0  0  0  0  0  0  0  0
  1  3  1  0
  2  3  1  0
  2  6  1  0
  3  4  1  0
  3  7  1  0
  4  5  2  0
  4  8  1  0
M  END
>  <reaction>  (2) 
rxn_816

>  <type>  (2) 
r2h

>  <mol_properties>  (2) 
{"0": {"label": "a_hydrogen", "atom_type": "H0"}, "2": {"label": "acceptor", "atom_type": "Cs"}}

>  <electro_map>  (2) 
{"0": {"R": null, "A": null, "D": null}, "2": {"R": 1.0876262350370223, "A": null, "D": null}, "1": {"R": 1.8041057226916282, "A": 102.16459429408093, "D": null}, "3": {"R": 2.7713415688410774, "A": 46.99721754925144, "D": 323.6923411067222}, "4": {"R": 1.6118357095888558, "A": 146.07754686213315, "D": 71.27681219454601}, "5": {"R": 4.098400473854623, "A": 37.43793109650378, "D": 20.15271661203354}, "6": {"R": 2.696969670018737, "A": 43.552358514225965, "D": 278.5731196983537}, "7": {"R": 3.0838736670677016, "A": 67.61224105716178, "D": 38.41278492712261}}

$$$$

     RDKit          3D

  9  7  0  0  0  0  0  0  0  0999 V2000
    0.7062    0.0204   -2.9903 H   0  0  0  0  0 15  0  0  0  0  0  0
    0.5835    0.0393   -1.8957 H   0  0  0  0  0  0  0  0  0  0  0  0
    0.5952    1.9043   -0.4202 S   0  0  0  0  0  0  0  0  0  0  0  0
    0.5706    0.1196   -0.6833 C   0  0  0  0  0  0  0  0  0  0  0  0
   -0.6457   -0.5659   -0.2234 C   0  0  0  0  0  0  0  0  0  0  0  0
   -0.6607   -2.0004    0.5114 S   0  0  0  0  0  0  0  0  0  0  0  0
    0.6860    1.8492    0.9159 H   0  0  0  0  0  0  0  0  0  0  0  0
    1.4890   -0.3767   -0.3781 H   0  0  0  0  0  0  0  0  0  0  0  0
   -1.5753   -0.0326   -0.4234 H   0  0  0  0  0  0  0  0  0  0  0  0
  2  4  1  0
  3  4  1  0
  3  7  1  0
  4  5  1  0
  4  8  1  0
  5  6  2  0
  5  9  1  0
M  END
>  <reaction>  (3) 
rxn_816

>  <type>  (3) 
ts

>  <mol_properties>  (3) 
{"0": {"label": "*1", "atom_type": "H0"}, "1": {"label": "*2", "atom_type": "H0"}, "3": {"label": "*3", "atom_type": "Cs"}, "4": {"label": "*4", "atom_type": "CS"}}

$$$$
