
     RDKit          3D

  7  6  0  0  0  0  0  0  0  0999 V2000
    0.5248   -0.1655    1.1623 C   0  0  0  0  0  0  0  0  0  0  0  0
    0.0400    0.0205   -0.0050 C   0  0  0  0  0  0  0  0  0  0  0  0
   -0.5393    0.1627   -1.1745 C   0  0  0  0  0  0  0  0  0  0  0  0
   -0.1176   -0.6914    1.8523 H   0  0  0  0  0  0  0  0  0  0  0  0
    1.4809    0.1212    1.5732 H   0  0  0  0  0  0  0  0  0  0  0  0
   -1.1325    1.0405   -1.3997 H   0  0  0  0  0  0  0  0  0  0  0  0
   -0.4138   -0.5816   -1.9511 H   0  0  0  0  0  0  0  0  0  0  0  0
  1  2  2  0
  1  4  1  0
  1  5  1  0
  2  3  2  0
  3  6  1  0
  3  7  1  0
M  END
>  <reaction>  (1) 
rxn_1812

>  <type>  (1) 
r1h

>  <mol_properties>  (1) 
{"0": {"label": "donator", "atom_type": "Cd"}, "3": {"label": "d_hydrogen", "atom_type": "H0"}}

>  <electro_map>  (1) 
{"3": {"R": null, "A": null, "D": null}, "0": {"R": 1.0794621344176083, "A": null, "D": null}, "1": {"R": 1.2775210102988779, "A": 115.41650181537061, "D": null}, "2": {"R": 1.3128516316546517, "A": 146.40564801814608, "D": 179.84467483198023}, "4": {"R": 3.410642958403807, "A": 11.379038276407645, "D": 181.35141420167307}, "5": {"R": 4.063600361796252, "A": 13.329983524202515, "D": 262.3345690244446}, "6": {"R": 1.8579593687018752, "A": 76.751000217465, "D": 352.19253934416736}}

$$$$

     RDKit          3D

  7  6  0  0  0  0  0  0  0  0999 V2000
   -0.7069   -0.2552   -0.6875 S   0  0  0  0  0  0  0  0  0  0  0  0
    0.6464    0.3328    0.2072 C   0  0  0  0  0  0  0  0  0  0  0  0
    0.9790    0.1814    1.4716 C   0  0  0  0  0  0  0  0  0  0  0  0
   -0.7215    0.7343   -1.5948 H   0  0  0  0  0  0  0  0  0  0  0  0
    1.9384    0.5336    1.8324 H   0  0  0  0  0  0  0  0  0  0  0  0
    0.3187   -0.2909    2.1929 H   0  0  0  0  0  0  0  0  0  0  0  0
    1.3497    0.8574   -0.4396 H   0  0  0  0  0  0  0  0  0  0  0  0
  1  2  1  0
  1  4  1  0
  2  3  2  3
  2  7  1  0
  3  5  1  0
  3  6  1  0
M  END
>  <reaction>  (2) 
rxn_1812

>  <type>  (2) 
r2h

>  <mol_properties>  (2) 
{"1": {"label": "acceptor", "atom_type": "Cd"}, "6": {"label": "a_hydrogen", "atom_type": "H0"}}

>  <electro_map>  (2) 
{"6": {"R": null, "A": null, "D": null}, "1": {"R": 1.0899999909882152, "A": null, "D": null}, "2": {"R": 1.3161906170468705, "A": 117.53946974525203, "D": null}, "0": {"R": 2.7739008126984217, "A": 55.8825825795589, "D": 2.6629622763367418}, "3": {"R": 1.3425858800118577, "A": 114.62348694178083, "D": 329.891518317627}, "4": {"R": 4.342884224434359, "A": 54.96757675787099, "D": 6.188122143346763}, "5": {"R": 1.8528659272786616, "A": 68.82389116281416, "D": 329.41681100957953}}

$$$$

     RDKit          3D

 13 11  0  0  0  0  0  0  0  0999 V2000
   -1.2970   -1.1533    0.3973 S   0  0  0  0  0  0  0  0  0  0  0  0
    0.0564   -0.5653    1.2920 C   0  0  0  0  0  3  0  0  0  0  0  0
    0.3890   -0.7168    2.5564 C   0  0  0  0  0  0  0  0  0  0  0  0
   -1.3116   -0.1638   -0.5100 H   0  0  0  0  0  0  0  0  0  0  0  0
    1.3483   -0.3645    2.9172 H   0  0  0  0  0  0  0  0  0  0  0  0
   -0.2713   -1.1891    3.2777 H   0  0  0  0  0  0  0  0  0  0  0  0
    1.7088    0.7226   -0.3456 C   0  0  0  0  0  0  0  0  0  0  0  0
    1.2241    0.9087   -1.5128 C   0  0  0  0  0  0  0  0  0  0  0  0
    0.6447    1.0509   -2.6823 C   0  0  0  0  0  0  0  0  0  0  0  0
    0.9456    0.0979    0.4742 H   0  0  0  0  0  0  0  0  0  0  0  0
    2.6649    1.0093    0.0653 H   0  0  0  0  0  0  0  0  0  0  0  0
    0.0515    1.9287   -2.9075 H   0  0  0  0  0  0  0  0  0  0  0  0
    0.7703    0.3065   -3.4590 H   0  0  0  0  0  0  0  0  0  0  0  0
  1  2  1  0
  1  4  1  0
  2  3  2  3
  3  5  1  0
  3  6  1  0
  7  8  2  0
  7 10  1  0
  7 11  1  0
  8  9  2  0
  9 12  1  0
  9 13  1  0
M  RAD  1   2   2
M  END
>  <reaction>  (3) 
rxn_1812

>  <type>  (3) 
ts

>  <mol_properties>  (3) 
{"0": {"label": "*4", "atom_type": "S2s"}, "1": {"label": "*3", "atom_type": "Cd"}, "6": {"label": "*1", "atom_type": "Cd"}, "7": {"label": "*0", "atom_type": "Cdd"}, "9": {"label": "*2", "atom_type": "H0"}}

$$$$
