
     RDKit          3D

  5  4  0  0  0  0  0  0  0  0999 V2000
    0.0124   -0.0436   -0.0056 C   0  0  0  0  0  0  0  0  0  0  0  0
   -0.2503    1.0012    0.1254 H   0  0  0  0  0  0  0  0  0  0  0  0
   -0.9622   -0.5198    0.0121 H   0  0  0  0  0  0  0  0  0  0  0  0
    0.5171   -0.0765   -0.9659 H   0  0  0  0  0  0  0  0  0  0  0  0
    0.6451   -0.2715    0.8464 H   0  0  0  0  0  0  0  0  0  0  0  0
  1  2  1  0
  1  3  1  0
  1  4  1  0
  1  5  1  0
M  END
>  <reaction>  (1) 
rxn_319

>  <type>  (1) 
r1h

>  <mol_properties>  (1) 
{"0": {"label": "donator", "atom_type": "Cs"}, "1": {"label": "d_hydrogen", "atom_type": "H0"}}

>  <electro_map>  (1) 
{"1": {"R": null, "A": null, "D": null}, "0": {"R": 1.0852223518292696, "A": null, "D": null}, "2": {"R": 1.0848295748593708, "A": 101.72148853054641, "D": null}, "3": {"R": 1.8279131905208403, "A": 58.305204236927004, "D": 324.02463711315715}, "4": {"R": 1.8272756576083258, "A": 60.01156707221784, "D": 25.670053830177583}}

$$$$

     RDKit          3D

  7  6  0  0  0  0  0  0  0  0999 V2000
    0.2650   -1.4592   -0.1757 H   0  0  0  0  0  0  0  0  0  0  0  0
    1.1627    0.5171   -0.0265 C   0  0  0  0  0  0  0  0  0  0  0  0
   -0.0144   -0.4140   -0.0435 C   0  0  0  0  0  0  0  0  0  0  0  0
   -1.1583   -0.1113    0.0698 O   0  0  0  0  0  0  0  0  0  0  0  0
    0.8477    1.5512    0.1070 H   0  0  0  0  0  0  0  0  0  0  0  0
    1.8368    0.2165    0.7786 H   0  0  0  0  0  0  0  0  0  0  0  0
    1.7139    0.4039   -0.9625 H   0  0  0  0  0  0  0  0  0  0  0  0
  1  3  1  0
  2  3  1  0
  2  5  1  0
  2  6  1  0
  2  7  1  0
  3  4  2  0
M  END
>  <reaction>  (2) 
rxn_319

>  <type>  (2) 
r2h

>  <mol_properties>  (2) 
{"0": {"label": "a_hydrogen", "atom_type": "H0"}, "2": {"label": "acceptor", "atom_type": "CO"}}

>  <electro_map>  (2) 
{"0": {"R": null, "A": null, "D": null}, "2": {"R": 1.0899999909882152, "A": null, "D": null}, "3": {"R": 1.1886293161064925, "A": 120.16643452498116, "D": null}, "1": {"R": 2.406485013508137, "A": 58.55646372088604, "D": 5.853177225625916e-06}, "4": {"R": 1.0892315857814578, "A": 87.9394991411826, "D": 180.00015037326932}, "5": {"R": 1.7918377136672734, "A": 34.828096091941006, "D": 120.93572808139717}, "6": {"R": 1.755542289439644, "A": 60.66783137875637, "D": 36.13390923221993}}

$$$$

     RDKit          3D

 11  9  0  0  0  0  0  0  0  0999 V2000
   -0.0149   -2.2425   -0.7530 C   0  0  0  0  0  3  0  0  0  0  0  0
   -0.3747   -0.8119   -0.5737 H   0  0  0  0  0  0  0  0  0  0  0  0
   -0.9895   -2.7187   -0.7354 H   0  0  0  0  0  0  0  0  0  0  0  0
    0.4898   -2.2754   -1.7134 H   0  0  0  0  0  0  0  0  0  0  0  0
    0.6179   -2.4704    0.0989 H   0  0  0  0  0  0  0  0  0  0  0  0
    0.4766    1.3383   -0.4025 C   0  0  0  0  0  0  0  0  0  0  0  0
   -0.7006    0.4072   -0.4196 C   0  0  0  0  0  0  0  0  0  0  0  0
   -1.8444    0.7099   -0.3063 O   0  0  0  0  0  0  0  0  0  0  0  0
    0.1615    2.3724   -0.2690 H   0  0  0  0  0  0  0  0  0  0  0  0
    1.1506    1.0378    0.4026 H   0  0  0  0  0  0  0  0  0  0  0  0
    1.0277    1.2251   -1.3386 H   0  0  0  0  0  0  0  0  0  0  0  0
  1  3  1  0
  1  4  1  0
  1  5  1  0
  2  7  1  0
  6  7  1  0
  6  9  1  0
  6 10  1  0
  6 11  1  0
  7  8  2  0
M  RAD  1   1   2
M  END
>  <reaction>  (3) 
rxn_319

>  <type>  (3) 
ts

>  <mol_properties>  (3) 
{"0": {"label": "*3", "atom_type": "Cs"}, "1": {"label": "*2", "atom_type": "H0"}, "2": {"label": "*4", "atom_type": "H0"}, "6": {"label": "*1", "atom_type": "CO"}, "7": {"label": "*0", "atom_type": "O2d"}}

$$$$
