
     RDKit          3D

  4  3  0  0  0  0  0  0  0  0999 V2000
   -0.3172   -0.0902   -0.6154 O   0  0  0  0  0  0  0  0  0  0  0  0
    0.2818    0.0194    0.6334 O   0  0  0  0  0  0  0  0  0  0  0  0
    0.4288   -0.0085   -1.2209 H   0  0  0  0  0  0  0  0  0  0  0  0
    0.1592    0.9382    0.8829 H   0  0  0  0  0  0  0  0  0  0  0  0
  1  2  1  0
  1  3  1  0
  2  4  1  0
M  END
>  <reaction>  (1) 
rxn_778

>  <type>  (1) 
r1h

>  <mol_properties>  (1) 
{"1": {"label": "donator", "atom_type": "O2s"}, "3": {"label": "d_hydrogen", "atom_type": "H0"}}

>  <electro_map>  (1) 
{"3": {"R": null, "A": null, "D": null}, "1": {"R": 0.9599999917546908, "A": null, "D": null}, "0": {"R": 1.3894020446533868, "A": 104.71329953630003, "D": null}, "2": {"R": 0.9642214911382814, "A": 104.96595795428163, "D": 270.03368072859655}}

$$$$

     RDKit          3D

  8  7  0  0  0  0  0  0  0  0999 V2000
    0.0777   -1.3688    0.4988 H   0  0  0  0  0  0  0  0  0  0  0  0
    0.0532    0.3423   -0.6691 C   0  0  0  0  0  0  0  0  0  0  0  0
   -0.0569   -0.3043    0.6766 C   0  0  0  0  0  0  0  0  0  0  0  0
   -0.1476    1.4175   -0.6001 H   0  0  0  0  0  0  0  0  0  0  0  0
   -0.6704   -0.0792   -1.3689 H   0  0  0  0  0  0  0  0  0  0  0  0
    1.0534    0.2249   -1.0896 H   0  0  0  0  0  0  0  0  0  0  0  0
   -1.0444   -0.2919    1.1322 H   0  0  0  0  0  0  0  0  0  0  0  0
    0.7421   -0.0897    1.3827 H   0  0  0  0  0  0  0  0  0  0  0  0
  1  3  1  0
  2  3  1  0
  2  4  1  0
  2  5  1  0
  2  6  1  0
  3  7  1  0
  3  8  1  0
M  END
>  <reaction>  (2) 
rxn_778

>  <type>  (2) 
r2h

>  <mol_properties>  (2) 
{"0": {"label": "a_hydrogen", "atom_type": "H0"}, "2": {"label": "acceptor", "atom_type": "Cs"}}

>  <electro_map>  (2) 
{"0": {"R": null, "A": null, "D": null}, "2": {"R": 1.0876484298260518, "A": null, "D": null}, "1": {"R": 1.4969824798160125, "A": 105.46907320966852, "D": null}, "3": {"R": 1.0959208607015551, "A": 140.98051402548018, "D": 353.4862729494524}, "4": {"R": 1.7619552284424036, "A": 36.24934244144963, "D": 238.53326428248286}, "5": {"R": 1.7725752696424069, "A": 59.796992104085724, "D": 322.5410798987876}, "6": {"R": 3.098997193848828, "A": 54.976270148022586, "D": 68.53173624402737}, "7": {"R": 1.8152519906562006, "A": 54.139362931458194, "D": 175.5936492431866}}

$$$$

     RDKit          3D

 11  9  0  0  0  0  0  0  0  0999 V2000
   -0.3081   -1.3940   -0.7815 O   0  0  0  0  0  0  0  0  0  0  0  0
    0.2908   -1.2845    0.4673 O   0  0  0  0  0  0  0  0  0  0  0  0
    0.4379   -1.3123   -1.3870 H   0  0  0  0  0  0  0  0  0  0  0  0
    0.1424   -0.1718    0.7694 H   0  0  0  0  0  0  0  0  0  0  0  0
    0.0842    1.8053   -0.3540 C   0  0  0  0  0  0  0  0  0  0  0  0
   -0.0259    1.1587    0.9916 C   0  0  0  0  0  3  0  0  0  0  0  0
   -0.1166    2.8804   -0.2850 H   0  0  0  0  0  0  0  0  0  0  0  0
   -0.6394    1.3838   -1.0538 H   0  0  0  0  0  0  0  0  0  0  0  0
    1.0844    1.6878   -0.7745 H   0  0  0  0  0  0  0  0  0  0  0  0
   -1.0133    1.1710    1.4473 H   0  0  0  0  0  0  0  0  0  0  0  0
    0.7731    1.3733    1.6978 H   0  0  0  0  0  0  0  0  0  0  0  0
  1  2  1  0
  1  3  1  0
  2  4  1  0
  5  6  1  0
  5  7  1  0
  5  8  1  0
  5  9  1  0
  6 10  1  0
  6 11  1  0
M  RAD  1   6   2
M  END
>  <reaction>  (3) 
rxn_778

>  <type>  (3) 
ts

>  <mol_properties>  (3) 
{"0": {"label": "*0", "atom_type": "O2s"}, "1": {"label": "*1", "atom_type": "O2s"}, "3": {"label": "*2", "atom_type": "H0"}, "4": {"label": "*4", "atom_type": "Cs"}, "5": {"label": "*3", "atom_type": "Cs"}}

$$$$
