
     RDKit          3D

  6  5  0  0  0  0  0  0  0  0999 V2000
   -0.2985   -0.0251   -0.6357 N   0  0  0  0  0  0  0  0  0  0  0  0
    0.2551    0.0106    0.6559 N   0  0  0  0  0  0  0  0  0  0  0  0
   -0.8454   -0.8686   -0.7333 H   0  0  0  0  0  0  0  0  0  0  0  0
    0.4019    0.0064   -1.3617 H   0  0  0  0  0  0  0  0  0  0  0  0
   -0.1602    0.7795    1.1701 H   0  0  0  0  0  0  0  0  0  0  0  0
    1.2475    0.2094    0.5939 H   0  0  0  0  0  0  0  0  0  0  0  0
  1  2  1  0
  1  3  1  0
  1  4  1  0
  2  5  1  0
  2  6  1  0
M  END
>  <reaction>  (1) 
rxn_649

>  <type>  (1) 
r1h

>  <mol_properties>  (1) 
{"1": {"label": "donator", "atom_type": "N3s"}, "4": {"label": "d_hydrogen", "atom_type": "H0"}}

>  <electro_map>  (1) 
{"4": {"R": null, "A": null, "D": null}, "1": {"R": 1.0140246767769558, "A": null, "D": null}, "0": {"R": 1.4056666965838918, "A": 108.90029463468865, "D": null}, "2": {"R": 1.0100669189983391, "A": 117.70353786064823, "D": 78.75464721082778}, "3": {"R": 1.6481275221827407, "A": 35.27920863539011, "D": 236.37393590189453}, "5": {"R": 2.1401553787437995, "A": 90.05889559476387, "D": 48.77105453775583}}

$$$$

     RDKit          3D

  4  3  0  0  0  0  0  0  0  0999 V2000
   -0.0585    0.0334    0.0603 N   0  0  0  0  0  0  0  0  0  0  0  0
    0.8193    0.4994    0.2984 H   0  0  0  0  0  0  0  0  0  0  0  0
   -0.2818    0.3743   -0.8768 H   0  0  0  0  0  0  0  0  0  0  0  0
    0.1771   -0.9351   -0.1655 H   0  0  0  0  0  0  0  0  0  0  0  0
  1  2  1  0
  1  3  1  0
  1  4  1  0
M  END
>  <reaction>  (2) 
rxn_649

>  <type>  (2) 
r2h

>  <mol_properties>  (2) 
{"0": {"label": "acceptor", "atom_type": "N3s"}, "3": {"label": "a_hydrogen", "atom_type": "H0"}}

>  <electro_map>  (2) 
{"3": {"R": null, "A": null, "D": null}, "0": {"R": 1.0219167811567575, "A": null, "D": null}, "1": {"R": 1.0219167811567575, "A": 106.59909065093912, "D": null}, "2": {"R": 1.615317917938504, "A": 57.25503053767053, "D": 315.19668979990763}}

$$$$

     RDKit          3D

  9  7  0  0  0  0  0  0  0  0999 V2000
   -0.4555    1.3960    1.1081 N   0  0  0  0  0  2  0  0  0  0  0  0
    0.4223    1.8620    1.3462 H   0  0  0  0  0  0  0  0  0  0  0  0
   -0.6789    1.7369    0.1710 H   0  0  0  0  0  0  0  0  0  0  0  0
   -0.2198   -0.8545   -1.0675 N   0  0  0  0  0  0  0  0  0  0  0  0
    0.3337   -0.8188    0.2241 N   0  0  0  0  0  0  0  0  0  0  0  0
   -0.7668   -1.6980   -1.1651 H   0  0  0  0  0  0  0  0  0  0  0  0
    0.4806   -0.8230   -1.7935 H   0  0  0  0  0  0  0  0  0  0  0  0
   -0.1222    0.0253    0.7886 H   0  0  0  0  0  0  0  0  0  0  0  0
    1.3261   -0.6199    0.1620 H   0  0  0  0  0  0  0  0  0  0  0  0
  1  2  1  0
  1  3  1  0
  4  5  1  0
  4  6  1  0
  4  7  1  0
  5  8  1  0
  5  9  1  0
M  RAD  1   1   2
M  END
>  <reaction>  (3) 
rxn_649

>  <type>  (3) 
ts

>  <mol_properties>  (3) 
{"0": {"label": "*3", "atom_type": "N3s"}, "1": {"label": "*4", "atom_type": "H0"}, "3": {"label": "*0", "atom_type": "N3s"}, "4": {"label": "*1", "atom_type": "N3s"}, "7": {"label": "*2", "atom_type": "H0"}}

$$$$
