
     RDKit          3D

  7  6  0  0  0  0  0  0  0  0999 V2000
   -0.4384    1.6019    0.4032 C   0  0  0  0  0  0  0  0  0  0  0  0
    0.3426    0.4061    0.4704 C   0  0  0  0  0  0  0  0  0  0  0  0
    0.0754   -0.9427   -0.4160 S   0  0  0  0  0  0  0  0  0  0  0  0
   -1.2198    1.3995    1.1321 H   0  0  0  0  0  0  0  0  0  0  0  0
    0.0199    2.5077    0.7951 H   0  0  0  0  0  0  0  0  0  0  0  0
   -1.0231    1.7399   -0.5026 H   0  0  0  0  0  0  0  0  0  0  0  0
    1.1300    0.3906    1.2235 H   0  0  0  0  0  0  0  0  0  0  0  0
  1  2  1  0
  1  4  1  0
  1  5  1  0
  1  6  1  0
  2  3  2  0
  2  7  1  0
M  END
>  <reaction>  (1) 
rxn_1991

>  <type>  (1) 
r1h

>  <mol_properties>  (1) 
{"0": {"label": "donator", "atom_type": "Cs"}, "3": {"label": "d_hydrogen", "atom_type": "H0"}}

>  <electro_map>  (1) 
{"3": {"R": null, "A": null, "D": null}, "0": {"R": 1.0875389859457192, "A": null, "D": null}, "1": {"R": 1.4297557877038072, "A": 101.8497847786267, "D": null}, "2": {"R": 1.6359584745066296, "A": 117.97988700816909, "D": 247.82881674361298}, "4": {"R": 3.657155503523623, "A": 17.29238478702638, "D": 16.76886091280041}, "5": {"R": 1.8333122151054384, "A": 51.62156025066099, "D": 190.80564419915663}, "6": {"R": 3.071740049112439, "A": 52.22854984346846, "D": 2.01498561050526}}

$$$$

     RDKit          3D

  5  4  0  0  0  0  0  0  0  0999 V2000
   -0.7365    1.3153   -0.1902 S   0  0  0  0  0  0  0  0  0  0  0  0
    0.4115    0.0740   -0.2768 C   0  0  0  0  0  0  0  0  0  0  0  0
    0.5882   -1.3814    0.3109 S   0  0  0  0  0  0  0  0  0  0  0  0
   -1.6353    0.7262    0.6239 H   0  0  0  0  0  0  0  0  0  0  0  0
    1.2048    0.3928   -0.9529 H   0  0  0  0  0  0  0  0  0  0  0  0
  1  2  1  0
  1  4  1  0
  2  3  2  0
  2  5  1  0
M  END
>  <reaction>  (2) 
rxn_1991

>  <type>  (2) 
r2h

>  <mol_properties>  (2) 
{"1": {"label": "acceptor", "atom_type": "CS"}, "4": {"label": "a_hydrogen", "atom_type": "H0"}}

>  <electro_map>  (2) 
{"4": {"R": null, "A": null, "D": null}, "1": {"R": 1.089999936305053, "A": null, "D": null}, "2": {"R": 1.5794629006178336, "A": 114.76762794134336, "D": null}, "0": {"R": 3.0460338507391267, "A": 48.14752489531732, "D": 1.3386111467342476}, "3": {"R": 1.3482234922038778, "A": 78.68021340687865, "D": 180.14996178417834}}

$$$$

     RDKit          3D

 11  9  0  0  0  0  0  0  0  0999 V2000
   -1.8757    1.1685    1.0474 S   0  0  0  0  0  0  0  0  0  0  0  0
   -0.7277   -0.0728    0.9608 C   0  0  0  0  0  3  0  0  0  0  0  0
   -0.5510   -1.5282    1.5485 S   0  0  0  0  0  0  0  0  0  0  0  0
   -2.7746    0.5794    1.8615 H   0  0  0  0  0  0  0  0  0  0  0  0
    1.2437    0.5852   -0.7951 C   0  0  0  0  0  0  0  0  0  0  0  0
    2.0247   -0.6105   -0.7279 C   0  0  0  0  0  0  0  0  0  0  0  0
    1.7576   -1.9593   -1.6144 S   0  0  0  0  0  0  0  0  0  0  0  0
    0.3037    0.3417    0.0817 H   0  0  0  0  0  0  0  0  0  0  0  0
    1.7020    1.4910   -0.4033 H   0  0  0  0  0  0  0  0  0  0  0  0
    0.6590    0.7233   -1.7009 H   0  0  0  0  0  0  0  0  0  0  0  0
    2.8121   -0.6260    0.0252 H   0  0  0  0  0  0  0  0  0  0  0  0
  1  2  1  0
  1  4  1  0
  2  3  2  0
  5  6  1  0
  5  8  1  0
  5  9  1  0
  5 10  1  0
  6  7  2  0
  6 11  1  0
M  RAD  1   2   2
M  END
>  <reaction>  (3) 
rxn_1991

>  <type>  (3) 
ts

>  <mol_properties>  (3) 
{"0": {"label": "*4", "atom_type": "S2s"}, "1": {"label": "*3", "atom_type": "CS"}, "4": {"label": "*1", "atom_type": "Cs"}, "5": {"label": "*0", "atom_type": "CS"}, "7": {"label": "*2", "atom_type": "H0"}}

$$$$
