
     RDKit          3D

  5  4  0  0  0  0  0  0  0  0999 V2000
   -0.0030   -0.0412   -0.0219 C   0  0  0  0  0  0  0  0  0  0  0  0
    0.0952    0.9147    0.4812 H   0  0  0  0  0  0  0  0  0  0  0  0
    0.6137   -0.7056    0.5736 H   0  0  0  0  0  0  0  0  0  0  0  0
   -1.0727   -0.2030    0.0563 H   0  0  0  0  0  0  0  0  0  0  0  0
    0.3662    0.1593   -1.0218 H   0  0  0  0  0  0  0  0  0  0  0  0
  1  2  1  0
  1  3  1  0
  1  4  1  0
  1  5  1  0
M  END
>  <reaction>  (1) 
rxn_867

>  <type>  (1) 
r1h

>  <mol_properties>  (1) 
{"0": {"label": "donator", "atom_type": "Cs"}, "1": {"label": "d_hydrogen", "atom_type": "H0"}}

>  <electro_map>  (1) 
{"1": {"R": null, "A": null, "D": null}, "0": {"R": 1.0846226092967401, "A": null, "D": null}, "2": {"R": 1.0846226092967401, "A": 103.52393456364756, "D": null}, "3": {"R": 1.8341117059057588, "A": 56.24063476127016, "D": 322.64130176004034}, "4": {"R": 1.8341117059057588, "A": 59.90886611921392, "D": 24.14635604434552}}

$$$$

     RDKit          3D

  6  5  0  0  0  0  0  0  0  0999 V2000
   -1.4272    0.1379    0.2959 S   0  0  0  0  0  0  0  0  0  0  0  0
   -0.0866   -0.5225   -0.2698 C   0  0  0  0  0  0  0  0  0  0  0  0
    1.2303   -0.0454   -0.2153 C   0  0  0  0  0  0  0  0  0  0  0  0
    2.3864    0.2869   -0.2143 C   0  0  0  0  0  0  0  0  0  0  0  0
    3.4019    0.6047   -0.1994 H   0  0  0  0  0  0  0  0  0  0  0  0
   -0.1498   -1.4832   -0.7809 H   0  0  0  0  0  0  0  0  0  0  0  0
  1  2  2  0
  2  3  1  0
  2  6  1  0
  3  4  3  0
  4  5  1  0
M  END
>  <reaction>  (2) 
rxn_867

>  <type>  (2) 
r2h

>  <mol_properties>  (2) 
{"1": {"label": "acceptor", "atom_type": "CS"}, "5": {"label": "a_hydrogen", "atom_type": "H0"}}

>  <electro_map>  (2) 
{"5": {"R": null, "A": null, "D": null}, "1": {"R": 1.089999936305053, "A": null, "D": null}, "0": {"R": 1.597931033803053, "A": 118.79253312722489, "D": null}, "2": {"R": 2.7124245382614682, "A": 47.79030862849518, "D": 0.00029244084262431503}, "3": {"R": 1.2029126958425849, "A": 157.33858164817943, "D": 180.00021731180968}, "4": {"R": 1.0641948981686329, "A": 178.45591402059262, "D": 359.9986472423343}}

$$$$

     RDKit          3D

 10  8  0  0  0  0  0  0  0  0999 V2000
   -1.3496    0.6098    0.5921 S   0  0  0  0  0  0  0  0  0  0  0  0
   -0.0090   -0.0506    0.0263 C   0  0  0  0  0  0  0  0  0  0  0  0
    1.3079    0.4265    0.0809 C   0  0  0  0  0  0  0  0  0  0  0  0
    2.4640    0.7588    0.0818 C   0  0  0  0  0  0  0  0  0  0  0  0
    3.4795    1.0767    0.0968 H   0  0  0  0  0  0  0  0  0  0  0  0
   -0.2137   -2.4424   -1.2386 C   0  0  0  0  0  3  0  0  0  0  0  0
   -0.0821   -1.1615   -0.5646 H   0  0  0  0  0  0  0  0  0  0  0  0
    0.4030   -3.1068   -0.6431 H   0  0  0  0  0  0  0  0  0  0  0  0
   -1.2833   -2.6042   -1.1604 H   0  0  0  0  0  0  0  0  0  0  0  0
    0.1556   -2.2419   -2.2385 H   0  0  0  0  0  0  0  0  0  0  0  0
  1  2  2  0
  2  3  1  0
  2  7  1  0
  3  4  3  0
  4  5  1  0
  6  8  1  0
  6  9  1  0
  6 10  1  0
M  RAD  1   6   2
M  END
>  <reaction>  (3) 
rxn_867

>  <type>  (3) 
ts

>  <mol_properties>  (3) 
{"0": {"label": "*0", "atom_type": "S2d"}, "1": {"label": "*1", "atom_type": "CS"}, "5": {"label": "*3", "atom_type": "Cs"}, "6": {"label": "*2", "atom_type": "H0"}, "7": {"label": "*4", "atom_type": "H0"}}

$$$$
