
     RDKit          3D

  7  6  0  0  0  0  0  0  0  0999 V2000
   -0.0004    0.0175   -0.7356 C   0  0  0  0  0  0  0  0  0  0  0  0
   -0.0543   -0.0697    0.7137 N   0  0  0  0  0  0  0  0  0  0  0  0
    0.8554    0.5767   -1.1275 H   0  0  0  0  0  0  0  0  0  0  0  0
   -0.9181    0.4738   -1.1064 H   0  0  0  0  0  0  0  0  0  0  0  0
    0.0560   -0.9988   -1.1366 H   0  0  0  0  0  0  0  0  0  0  0  0
   -0.0840    0.8823    1.0789 H   0  0  0  0  0  0  0  0  0  0  0  0
    0.8558   -0.3796    1.0546 H   0  0  0  0  0  0  0  0  0  0  0  0
  1  2  1  0
  1  3  1  0
  1  4  1  0
  1  5  1  0
  2  6  1  0
  2  7  1  0
M  END
>  <reaction>  (1) 
rxn_682

>  <type>  (1) 
r1h

>  <mol_properties>  (1) 
{"1": {"label": "donator", "atom_type": "N3s"}, "5": {"label": "d_hydrogen", "atom_type": "H0"}}

>  <electro_map>  (1) 
{"5": {"R": null, "A": null, "D": null}, "1": {"R": 1.0200855604451335, "A": null, "D": null}, "0": {"R": 1.4529596870485122, "A": 107.58529325945307, "D": null}, "6": {"R": 2.0237567900083695, "A": 45.90161675713341, "D": 320.86761077457425}, "2": {"R": 2.3824610716770676, "A": 27.246454381417355, "D": 224.24201034150374}, "3": {"R": 1.7766081576825583, "A": 88.05304627025004, "D": 19.748666135311527}, "4": {"R": 1.7658672335390382, "A": 59.83227031871417, "D": 292.90253508179535}}

$$$$

     RDKit          3D

  2  1  0  0  0  0  0  0  0  0999 V2000
    0.1313    0.4438    0.0840 H   0  0  0  0  0  0  0  0  0  0  0  0
   -0.0752   -0.2544   -0.0481 H   0  0  0  0  0  0  0  0  0  0  0  0
  1  2  1  0
M  END
>  <reaction>  (2) 
rxn_682

>  <type>  (2) 
r2h

>  <mol_properties>  (2) 
{"0": {"label": "acceptor", "atom_type": "H0"}, "1": {"label": "a_hydrogen", "atom_type": "H0"}}

>  <electro_map>  (2) 
{"1": {"R": null, "A": null, "D": null}, "0": {"R": 0.7399999806043261, "A": null, "D": null}}

$$$$

     RDKit          3D

  8  6  0  0  0  0  0  0  0  0999 V2000
    0.1337    1.8842    1.2945 H   0  0  0  0  0 15  0  0  0  0  0  0
   -0.0388   -0.0737   -0.7668 C   0  0  0  0  0  0  0  0  0  0  0  0
   -0.0928   -0.1610    0.6825 N   0  0  0  0  0  0  0  0  0  0  0  0
    0.8169    0.4855   -1.1587 H   0  0  0  0  0  0  0  0  0  0  0  0
   -0.9566    0.3825   -1.1375 H   0  0  0  0  0  0  0  0  0  0  0  0
    0.0175   -1.0901   -1.1678 H   0  0  0  0  0  0  0  0  0  0  0  0
   -0.1289    0.9965    1.1265 H   0  0  0  0  0  0  0  0  0  0  0  0
    0.8174   -0.4709    1.0234 H   0  0  0  0  0  0  0  0  0  0  0  0
  2  3  1  0
  2  4  1  0
  2  5  1  0
  2  6  1  0
  3  7  1  0
  3  8  1  0
M  END
>  <reaction>  (3) 
rxn_682

>  <type>  (3) 
ts

>  <mol_properties>  (3) 
{"0": {"label": "*1", "atom_type": "H0"}, "1": {"label": "*4", "atom_type": "Cs"}, "2": {"label": "*3", "atom_type": "N3s"}, "6": {"label": "*2", "atom_type": "H0"}}

$$$$
