
     RDKit          3D

  7  6  0  0  0  0  0  0  0  0999 V2000
   -0.9058   -0.0832   -1.0005 C   0  0  0  0  0  0  0  0  0  0  0  0
   -0.0891   -0.0365   -0.1209 C   0  0  0  0  0  0  0  0  0  0  0  0
    0.8566    0.0763    0.9444 C   0  0  0  0  0  0  0  0  0  0  0  0
   -1.6217   -0.1403   -1.7844 H   0  0  0  0  0  0  0  0  0  0  0  0
    0.6591    1.0034    1.4790 H   0  0  0  0  0  0  0  0  0  0  0  0
    1.8872    0.1800    0.6105 H   0  0  0  0  0  0  0  0  0  0  0  0
    0.7561   -0.6934    1.7071 H   0  0  0  0  0  0  0  0  0  0  0  0
  1  2  3  0
  1  4  1  0
  2  3  1  0
  3  5  1  0
  3  6  1  0
  3  7  1  0
M  END
>  <reaction>  (1) 
rxn_1214

>  <type>  (1) 
r1h

>  <mol_properties>  (1) 
{"2": {"label": "donator", "atom_type": "Cs"}, "4": {"label": "d_hydrogen", "atom_type": "H0"}}

>  <electro_map>  (1) 
{"4": {"R": null, "A": null, "D": null}, "2": {"R": 1.088284433200012, "A": null, "D": null}, "1": {"R": 1.4289199352912598, "A": 108.26112376026134, "D": null}, "0": {"R": 1.2011970331302095, "A": 147.0892272557102, "D": 180.00009982947103}, "3": {"R": 1.0631935997235706, "A": 179.03017389420518, "D": 179.99928215048948}, "5": {"R": 4.2604161692326015, "A": 13.30942621285803, "D": 293.321219430818}, "6": {"R": 1.801308378905602, "A": 77.79559496965285, "D": 23.894038215889914}}

$$$$

     RDKit          3D

  5  4  0  0  0  0  0  0  0  0999 V2000
    0.1963   -0.8913   -0.5074 H   0  0  0  0  0  0  0  0  0  0  0  0
   -0.0068    0.0346    0.0206 C   0  0  0  0  0  0  0  0  0  0  0  0
    0.7348    0.0683    0.8121 H   0  0  0  0  0  0  0  0  0  0  0  0
   -1.0287   -0.0976    0.3604 H   0  0  0  0  0  0  0  0  0  0  0  0
    0.1173    0.7873   -0.7509 H   0  0  0  0  0  0  0  0  0  0  0  0
  1  2  1  0
  2  3  1  0
  2  4  1  0
  2  5  1  0
M  END
>  <reaction>  (2) 
rxn_1214

>  <type>  (2) 
r2h

>  <mol_properties>  (2) 
{"0": {"label": "a_hydrogen", "atom_type": "H0"}, "1": {"label": "acceptor", "atom_type": "Cs"}}

>  <electro_map>  (2) 
{"0": {"R": null, "A": null, "D": null}, "1": {"R": 1.0850294419438344, "A": null, "D": null}, "2": {"R": 1.085157100273442, "A": 104.68168031332328, "D": null}, "3": {"R": 1.8278934951657302, "A": 57.123712430625694, "D": 36.474618455425315}, "4": {"R": 1.8251876708432526, "A": 60.048973179106795, "D": 334.2300160656201}}

$$$$

     RDKit          3D

 11  9  0  0  0  0  0  0  0  0999 V2000
   -1.1234   -0.7686   -1.5322 C   0  0  0  0  0  0  0  0  0  0  0  0
   -0.3067   -0.7218   -0.6526 C   0  0  0  0  0  0  0  0  0  0  0  0
    0.6390   -0.6090    0.4126 C   0  0  0  0  0  0  0  0  0  0  0  0
   -1.8393   -0.8256   -2.3161 H   0  0  0  0  0  0  0  0  0  0  0  0
    0.4060    0.4844    1.0432 H   0  0  0  0  0  0  0  0  0  0  0  0
    1.6696   -0.5054    0.0788 H   0  0  0  0  0  0  0  0  0  0  0  0
    0.5385   -1.3787    1.1754 H   0  0  0  0  0  0  0  0  0  0  0  0
    0.1417    1.6890    1.7300 C   0  0  0  0  0  3  0  0  0  0  0  0
    0.8833    1.7227    2.5215 H   0  0  0  0  0  0  0  0  0  0  0  0
   -0.8801    1.5568    2.0698 H   0  0  0  0  0  0  0  0  0  0  0  0
    0.2659    2.4418    0.9585 H   0  0  0  0  0  0  0  0  0  0  0  0
  1  2  3  0
  1  4  1  0
  2  3  1  0
  3  5  1  0
  3  6  1  0
  3  7  1  0
  8  9  1  0
  8 10  1  0
  8 11  1  0
M  RAD  1   8   2
M  END
>  <reaction>  (3) 
rxn_1214

>  <type>  (3) 
ts

>  <mol_properties>  (3) 
{"1": {"label": "*0", "atom_type": "Ct"}, "2": {"label": "*1", "atom_type": "Cs"}, "4": {"label": "*2", "atom_type": "H0"}, "7": {"label": "*3", "atom_type": "Cs"}, "8": {"label": "*4", "atom_type": "H0"}}

$$$$
