
     RDKit          3D

  7  6  0  0  0  0  0  0  0  0999 V2000
    0.0617    0.3839   -1.2881 C   0  0  0  0  0  0  0  0  0  0  0  0
    0.0033   -0.0133   -0.1512 C   0  0  0  0  0  0  0  0  0  0  0  0
   -0.0573   -0.3712    1.2075 C   0  0  0  0  0  0  0  0  0  0  0  0
    0.1171    0.6887   -2.3058 H   0  0  0  0  0  0  0  0  0  0  0  0
   -0.0517    0.5949    1.7024 H   0  0  0  0  0  0  0  0  0  0  0  0
    0.8379   -0.8080    1.6393 H   0  0  0  0  0  0  0  0  0  0  0  0
   -0.9965   -0.7811    1.5652 H   0  0  0  0  0  0  0  0  0  0  0  0
  1  2  3  0
  1  4  1  0
  2  3  1  0
  3  5  1  0
  3  6  1  0
  3  7  1  0
M  END
>  <reaction>  (1) 
rxn_1246

>  <type>  (1) 
r1h

>  <mol_properties>  (1) 
{"2": {"label": "donator", "atom_type": "Cs"}, "4": {"label": "d_hydrogen", "atom_type": "H0"}}

>  <electro_map>  (1) 
{"4": {"R": null, "A": null, "D": null}, "2": {"R": 1.0855198338267926, "A": null, "D": null}, "1": {"R": 1.406365622959369, "A": 102.34072980316154, "D": null}, "0": {"R": 1.205706563892897, "A": 142.5879389677959, "D": 180.403308585001}, "3": {"R": 1.0637706003312413, "A": 177.4097450941065, "D": 171.4163256758868}, "5": {"R": 4.280545587436611, "A": 13.325442631681424, "D": 292.5120740640065}, "6": {"R": 1.836103261404079, "A": 77.84721605708786, "D": 18.09614056205629}}

$$$$

     RDKit          3D

  8  7  0  0  0  0  0  0  0  0999 V2000
   -0.5566   -1.4449   -0.2915 H   0  0  0  0  0  0  0  0  0  0  0  0
   -2.0548    0.3162   -0.5330 S   0  0  0  0  0  0  0  0  0  0  0  0
   -0.5829   -0.4426    0.1308 C   0  0  0  0  0  0  0  0  0  0  0  0
    0.7174    0.1137   -0.2137 C   0  0  0  0  0  0  0  0  0  0  0  0
    2.0747   -0.1479    0.6316 S   0  0  0  0  0  0  0  0  0  0  0  0
   -1.7275    0.1636   -1.8255 H   0  0  0  0  0  0  0  0  0  0  0  0
   -0.7084   -0.6541    1.1905 H   0  0  0  0  0  0  0  0  0  0  0  0
    0.7547    0.6839   -1.1420 H   0  0  0  0  0  0  0  0  0  0  0  0
  1  3  1  0
  2  3  1  0
  2  6  1  0
  3  4  1  0
  3  7  1  0
  4  5  2  0
  4  8  1  0
M  END
>  <reaction>  (2) 
rxn_1246

>  <type>  (2) 
r2h

>  <mol_properties>  (2) 
{"0": {"label": "a_hydrogen", "atom_type": "H0"}, "2": {"label": "acceptor", "atom_type": "Cs"}}

>  <electro_map>  (2) 
{"0": {"R": null, "A": null, "D": null}, "2": {"R": 1.0878592303418573, "A": null, "D": null}, "1": {"R": 1.7840147813945868, "A": 105.50970069481211, "D": null}, "3": {"R": 2.7978981746498977, "A": 45.15071880069131, "D": 35.20093446381986}, "4": {"R": 1.6202316013840161, "A": 154.32360628115794, "D": 320.12162085925905}, "5": {"R": 4.537726673527997, "A": 5.43826564411357, "D": 90.29629783802037}, "6": {"R": 3.2867796308075934, "A": 39.31126020798326, "D": 261.9978726618872}, "7": {"R": 3.0612567791565817, "A": 48.72364375464269, "D": 10.380888039181983}}

$$$$

     RDKit          3D

 14 12  0  0  0  0  0  0  0  0999 V2000
   -0.3559   -1.5144   -2.5178 C   0  0  0  0  0  0  0  0  0  0  0  0
   -0.4143   -1.9116   -1.3809 C   0  0  0  0  0  0  0  0  0  0  0  0
   -0.4749   -2.2695   -0.0222 C   0  0  0  0  0  3  0  0  0  0  0  0
   -0.3005   -1.2096   -3.5354 H   0  0  0  0  0  0  0  0  0  0  0  0
   -0.4675   -0.9917    0.6324 H   0  0  0  0  0  0  0  0  0  0  0  0
    0.4204   -2.7063    0.4096 H   0  0  0  0  0  0  0  0  0  0  0  0
   -1.4141   -2.6794    0.3356 H   0  0  0  0  0  0  0  0  0  0  0  0
   -1.9701    0.9392    0.4625 S   0  0  0  0  0  0  0  0  0  0  0  0
   -0.4982    0.1804    1.1262 C   0  0  0  0  0  0  0  0  0  0  0  0
    0.8021    0.7367    0.7818 C   0  0  0  0  0  0  0  0  0  0  0  0
    2.1594    0.4751    1.6270 S   0  0  0  0  0  0  0  0  0  0  0  0
   -1.6428    0.7866   -0.8300 H   0  0  0  0  0  0  0  0  0  0  0  0
   -0.6237   -0.0311    2.1859 H   0  0  0  0  0  0  0  0  0  0  0  0
    0.8394    1.3069   -0.1465 H   0  0  0  0  0  0  0  0  0  0  0  0
  1  2  3  0
  1  4  1  0
  2  3  1  0
  3  6  1  0
  3  7  1  0
  5  9  1  0
  8  9  1  0
  8 12  1  0
  9 10  1  0
  9 13  1  0
 10 11  2  0
 10 14  1  0
M  RAD  1   3   2
M  END
>  <reaction>  (3) 
rxn_1246

>  <type>  (3) 
ts

>  <mol_properties>  (3) 
{"1": {"label": "*4", "atom_type": "Ct"}, "2": {"label": "*3", "atom_type": "Cs"}, "4": {"label": "*2", "atom_type": "H0"}, "8": {"label": "*1", "atom_type": "Cs"}, "9": {"label": "*0", "atom_type": "CS"}}

$$$$
