
     RDKit          3D

  6  5  0  0  0  0  0  0  0  0999 V2000
   -0.0816    0.0837   -0.6718 N   0  0  0  0  0  0  0  0  0  0  0  0
    0.0388   -0.1042    0.6846 N   0  0  0  0  0  0  0  0  0  0  0  0
   -0.8916   -0.3851   -1.0473 H   0  0  0  0  0  0  0  0  0  0  0  0
    0.7512   -0.0706   -1.2172 H   0  0  0  0  0  0  0  0  0  0  0  0
   -0.2522    0.7679    1.1174 H   0  0  0  0  0  0  0  0  0  0  0  0
    1.0289   -0.1507    0.9081 H   0  0  0  0  0  0  0  0  0  0  0  0
  1  2  1  0
  1  3  1  0
  1  4  1  0
  2  5  1  0
  2  6  1  0
M  END
>  <reaction>  (1) 
rxn_724

>  <type>  (1) 
r1h

>  <mol_properties>  (1) 
{"1": {"label": "donator", "atom_type": "N3s"}, "4": {"label": "d_hydrogen", "atom_type": "H0"}}

>  <electro_map>  (1) 
{"4": {"R": null, "A": null, "D": null}, "1": {"R": 1.0161187952232058, "A": null, "D": null}, "0": {"R": 1.3746606234563483, "A": 106.13216682288231, "D": null}, "2": {"R": 1.0083642085263878, "A": 116.14119089557367, "D": 89.31975239105445}, "3": {"R": 1.6812060212123017, "A": 33.46501488553832, "D": 226.51272194294268}, "5": {"R": 2.144854634123202, "A": 91.1108427254235, "D": 37.15044238861986}}

$$$$

     RDKit          3D

  4  3  0  0  0  0  0  0  0  0999 V2000
   -0.2224   -0.2835    0.5828 O   0  0  0  0  0  0  0  0  0  0  0  0
    0.2598    0.3602   -0.5300 O   0  0  0  0  0  0  0  0  0  0  0  0
   -0.4746    0.3257   -1.1555 H   0  0  0  0  0  0  0  0  0  0  0  0
   -0.1446   -1.2200    0.3866 H   0  0  0  0  0  0  0  0  0  0  0  0
  1  2  1  0
  1  4  1  0
  2  3  1  0
M  END
>  <reaction>  (2) 
rxn_724

>  <type>  (2) 
r2h

>  <mol_properties>  (2) 
{"0": {"label": "acceptor", "atom_type": "O2s"}, "3": {"label": "a_hydrogen", "atom_type": "H0"}}

>  <electro_map>  (2) 
{"3": {"R": null, "A": null, "D": null}, "0": {"R": 0.9599999917546908, "A": null, "D": null}, "1": {"R": 1.3730038111134402, "A": 105.26104806757203, "D": null}, "2": {"R": 0.9652523457464818, "A": 97.06013054276978, "D": 254.11229341184927}}

$$$$

     RDKit          3D

  9  7  0  0  0  0  0  0  0  0999 V2000
   -0.3138    0.8739    1.1019 O   0  0  0  0  0  1  0  0  0  0  0  0
    0.1684    1.5176   -0.0108 O   0  0  0  0  0  0  0  0  0  0  0  0
   -0.5659    1.4832   -0.6363 H   0  0  0  0  0  0  0  0  0  0  0  0
    0.0028   -1.1938   -1.0125 N   0  0  0  0  0  0  0  0  0  0  0  0
    0.1231   -1.3817    0.3439 N   0  0  0  0  0  0  0  0  0  0  0  0
   -0.8072   -1.6626   -1.3880 H   0  0  0  0  0  0  0  0  0  0  0  0
    0.8355   -1.3481   -1.5579 H   0  0  0  0  0  0  0  0  0  0  0  0
   -0.2090   -0.3860    0.8380 H   0  0  0  0  0  0  0  0  0  0  0  0
    1.1133   -1.4282    0.5674 H   0  0  0  0  0  0  0  0  0  0  0  0
  1  2  1  0
  2  3  1  0
  4  5  1  0
  4  6  1  0
  4  7  1  0
  5  8  1  0
  5  9  1  0
M  RAD  1   1   2
M  END
>  <reaction>  (3) 
rxn_724

>  <type>  (3) 
ts

>  <mol_properties>  (3) 
{"0": {"label": "*3", "atom_type": "O2s"}, "1": {"label": "*4", "atom_type": "O2s"}, "3": {"label": "*0", "atom_type": "N3s"}, "4": {"label": "*1", "atom_type": "N3s"}, "7": {"label": "*2", "atom_type": "H0"}}

$$$$
