
     RDKit          3D

  6  5  0  0  0  0  0  0  0  0999 V2000
   -0.2212   -0.1075    1.1727 C   0  0  0  0  0  0  0  0  0  0  0  0
    0.0693    0.0302   -0.5743 S   0  0  0  0  0  0  0  0  0  0  0  0
   -0.1905    0.8754    1.6377 H   0  0  0  0  0  0  0  0  0  0  0  0
   -1.2324   -0.4736    1.3355 H   0  0  0  0  0  0  0  0  0  0  0  0
    0.5142   -0.7137    1.6972 H   0  0  0  0  0  0  0  0  0  0  0  0
    1.3386    0.4517   -0.5008 H   0  0  0  0  0  0  0  0  0  0  0  0
  1  2  1  0
  1  3  1  0
  1  4  1  0
  1  5  1  0
  2  6  1  0
M  END
>  <reaction>  (1) 
rxn_1835

>  <type>  (1) 
r1h

>  <mol_properties>  (1) 
{"0": {"label": "donator", "atom_type": "Cs"}, "2": {"label": "d_hydrogen", "atom_type": "H0"}}

>  <electro_map>  (1) 
{"2": {"R": null, "A": null, "D": null}, "0": {"R": 1.087735779732661, "A": null, "D": null}, "1": {"R": 1.7763500747569407, "A": 110.22883300864666, "D": null}, "5": {"R": 1.339446428737773, "A": 86.60087793726447, "D": 245.26517255218306}, "3": {"R": 3.292095317373772, "A": 37.07388034261926, "D": 0.6864013273256673}, "4": {"R": 1.7997278537587884, "A": 52.53347696316082, "D": 147.4497635052756}}

$$$$

     RDKit          3D

  9  8  0  0  0  0  0  0  0  0999 V2000
   -0.0581   -1.3374   -0.6238 H   0  0  0  0  0  0  0  0  0  0  0  0
   -0.1026    0.6035   -1.1378 C   0  0  0  0  0  0  0  0  0  0  0  0
   -0.0219   -0.3276   -0.2150 C   0  0  0  0  0  0  0  0  0  0  0  0
    0.1154   -0.2497    1.2578 C   0  0  0  0  0  0  0  0  0  0  0  0
   -0.2065    0.3499   -2.1880 H   0  0  0  0  0  0  0  0  0  0  0  0
   -0.0714    1.6626   -0.8848 H   0  0  0  0  0  0  0  0  0  0  0  0
    1.0247   -0.7542    1.5931 H   0  0  0  0  0  0  0  0  0  0  0  0
    0.1561    0.7905    1.5958 H   0  0  0  0  0  0  0  0  0  0  0  0
   -0.7265   -0.7379    1.7543 H   0  0  0  0  0  0  0  0  0  0  0  0
  1  3  1  0
  2  3  2  3
  2  5  1  0
  2  6  1  0
  3  4  1  0
  4  7  1  0
  4  8  1  0
  4  9  1  0
M  END
>  <reaction>  (2) 
rxn_1835

>  <type>  (2) 
r2h

>  <mol_properties>  (2) 
{"0": {"label": "a_hydrogen", "atom_type": "H0"}, "2": {"label": "acceptor", "atom_type": "Cd"}}

>  <electro_map>  (2) 
{"0": {"R": null, "A": null, "D": null}, "2": {"R": 1.089999936305053, "A": null, "D": null}, "1": {"R": 1.3133445928707372, "A": 113.03387631938557, "D": null}, "3": {"R": 2.5522797697074013, "A": 55.58574022348864, "D": 0.2144883082496695}, "4": {"R": 3.512337601460848, "A": 9.70122571517916, "D": 359.5246558444697}, "5": {"R": 1.8546886209486135, "A": 54.88851243911084, "D": 359.73531138801997}, "6": {"R": 3.6308102576189594, "A": 91.7395624136973, "D": 13.998072876983956}, "7": {"R": 1.772210389811612, "A": 43.35212526762343, "D": 208.25809119154042}, "8": {"R": 1.7719899458158643, "A": 59.50059472697115, "D": 101.28930023616076}}

$$$$

     RDKit          3D

 14 12  0  0  0  0  0  0  0  0999 V2000
   -0.1211   -1.3076    0.0227 C   0  0  0  0  0  0  0  0  0  0  0  0
    0.1694   -1.1699   -1.7244 S   0  0  0  0  0  0  0  0  0  0  0  0
   -0.0847   -0.1420    0.5741 H   0  0  0  0  0  0  0  0  0  0  0  0
   -1.1323   -1.6737    0.1855 H   0  0  0  0  0  0  0  0  0  0  0  0
    0.6143   -1.9138    0.5471 H   0  0  0  0  0  0  0  0  0  0  0  0
    1.4386   -0.7484   -1.6508 H   0  0  0  0  0  0  0  0  0  0  0  0
   -0.1190    2.0839    0.1755 C   0  0  0  0  0  0  0  0  0  0  0  0
   -0.0382    1.1528    1.0982 C   0  0  0  0  0  3  0  0  0  0  0  0
    0.0991    1.2307    2.5711 C   0  0  0  0  0  0  0  0  0  0  0  0
   -0.2229    1.8303   -0.8747 H   0  0  0  0  0  0  0  0  0  0  0  0
   -0.0878    3.1430    0.4285 H   0  0  0  0  0  0  0  0  0  0  0  0
    1.0084    0.7261    2.9063 H   0  0  0  0  0  0  0  0  0  0  0  0
    0.1397    2.2709    2.9090 H   0  0  0  0  0  0  0  0  0  0  0  0
   -0.7428    0.7425    3.0676 H   0  0  0  0  0  0  0  0  0  0  0  0
  1  2  1  0
  1  3  1  0
  1  4  1  0
  1  5  1  0
  2  6  1  0
  7  8  2  3
  7 10  1  0
  7 11  1  0
  8  9  1  0
  9 12  1  0
  9 13  1  0
  9 14  1  0
M  RAD  1   8   2
M  END
>  <reaction>  (3) 
rxn_1835

>  <type>  (3) 
ts

>  <mol_properties>  (3) 
{"0": {"label": "*1", "atom_type": "Cs"}, "1": {"label": "*0", "atom_type": "S2s"}, "2": {"label": "*2", "atom_type": "H0"}, "6": {"label": "*4", "atom_type": "Cd"}, "7": {"label": "*3", "atom_type": "Cd"}}

$$$$
